
---------- Begin Simulation Statistics ----------
simSeconds                                   0.392786                       # Number of seconds simulated (Second)
simTicks                                 392785683472                       # Number of ticks simulated (Tick)
finalTick                                136060620648536                       # Number of ticks from beginning of simulation (restored from checkpoints and never reset) (Tick)
simFreq                                  1000000000000                       # The number of ticks per simulated second ((Tick/Second))
hostSeconds                                   2392.14                       # Real time elapsed on the host (Second)
hostTickRate                                164198382                       # The number of ticks simulated per host second (ticks/s) ((Tick/Second))
hostMemory                                    4008272                       # Number of bytes of host memory used (Byte)
simInsts                                    241823660                       # Number of instructions simulated (Count)
simOps                                      381023954                       # Number of ops (including micro ops) simulated (Count)
hostInstRate                                   101091                       # Simulator instruction rate (inst/s) ((Count/Second))
hostOpRate                                     159282                       # Simulator op (including micro ops) rate (op/s) ((Count/Second))
board.cache_hierarchy.ruby_system.delayHistogram::bucket_size           16                       # delay histogram for all message (Unspecified)
board.cache_hierarchy.ruby_system.delayHistogram::max_bucket          159                       # delay histogram for all message (Unspecified)
board.cache_hierarchy.ruby_system.delayHistogram::samples    209439768                       # delay histogram for all message (Unspecified)
board.cache_hierarchy.ruby_system.delayHistogram::mean     0.097324                       # delay histogram for all message (Unspecified)
board.cache_hierarchy.ruby_system.delayHistogram::stdev     0.889401                       # delay histogram for all message (Unspecified)
board.cache_hierarchy.ruby_system.delayHistogram |   209382922     99.97%     99.97% |       56677      0.03%    100.00% |         144      0.00%    100.00% |          23      0.00%    100.00% |           1      0.00%    100.00% |           0      0.00%    100.00% |           0      0.00%    100.00% |           1      0.00%    100.00% |           0      0.00%    100.00% |           0      0.00%    100.00% # delay histogram for all message (Unspecified)
board.cache_hierarchy.ruby_system.delayHistogram::total    209439768                       # delay histogram for all message (Unspecified)
board.cache_hierarchy.ruby_system.m_outstandReqHistSeqr::bucket_size            1                       (Unspecified)
board.cache_hierarchy.ruby_system.m_outstandReqHistSeqr::max_bucket            9                       (Unspecified)
board.cache_hierarchy.ruby_system.m_outstandReqHistSeqr::samples    376187845                       (Unspecified)
board.cache_hierarchy.ruby_system.m_outstandReqHistSeqr::mean     1.000000                       (Unspecified)
board.cache_hierarchy.ruby_system.m_outstandReqHistSeqr::gmean     1.000000                       (Unspecified)
board.cache_hierarchy.ruby_system.m_outstandReqHistSeqr::stdev     0.000305                       (Unspecified)
board.cache_hierarchy.ruby_system.m_outstandReqHistSeqr |           0      0.00%      0.00% |   376187810    100.00%    100.00% |          35      0.00%    100.00% |           0      0.00%    100.00% |           0      0.00%    100.00% |           0      0.00%    100.00% |           0      0.00%    100.00% |           0      0.00%    100.00% |           0      0.00%    100.00% |           0      0.00%    100.00% (Unspecified)
board.cache_hierarchy.ruby_system.m_outstandReqHistSeqr::total    376187845                       (Unspecified)
board.cache_hierarchy.ruby_system.m_latencyHistSeqr::bucket_size          256                       (Unspecified)
board.cache_hierarchy.ruby_system.m_latencyHistSeqr::max_bucket         2559                       (Unspecified)
board.cache_hierarchy.ruby_system.m_latencyHistSeqr::samples    376187843                       (Unspecified)
board.cache_hierarchy.ruby_system.m_latencyHistSeqr::mean     5.263116                       (Unspecified)
board.cache_hierarchy.ruby_system.m_latencyHistSeqr::gmean     1.547165                       (Unspecified)
board.cache_hierarchy.ruby_system.m_latencyHistSeqr::stdev    26.342107                       (Unspecified)
board.cache_hierarchy.ruby_system.m_latencyHistSeqr |   376029650     99.96%     99.96% |       63352      0.02%     99.97% |       12545      0.00%     99.98% |       28503      0.01%     99.99% |       52645      0.01%    100.00% |        1028      0.00%    100.00% |         120      0.00%    100.00% |           0      0.00%    100.00% |           0      0.00%    100.00% |           0      0.00%    100.00% (Unspecified)
board.cache_hierarchy.ruby_system.m_latencyHistSeqr::total    376187843                       (Unspecified)
board.cache_hierarchy.ruby_system.m_hitLatencyHistSeqr::bucket_size            1                       (Unspecified)
board.cache_hierarchy.ruby_system.m_hitLatencyHistSeqr::max_bucket            9                       (Unspecified)
board.cache_hierarchy.ruby_system.m_hitLatencyHistSeqr::samples    317467918                       (Unspecified)
board.cache_hierarchy.ruby_system.m_hitLatencyHistSeqr::mean            1                       (Unspecified)
board.cache_hierarchy.ruby_system.m_hitLatencyHistSeqr::gmean            1                       (Unspecified)
board.cache_hierarchy.ruby_system.m_hitLatencyHistSeqr |           0      0.00%      0.00% |   317467918    100.00%    100.00% |           0      0.00%    100.00% |           0      0.00%    100.00% |           0      0.00%    100.00% |           0      0.00%    100.00% |           0      0.00%    100.00% |           0      0.00%    100.00% |           0      0.00%    100.00% |           0      0.00%    100.00% (Unspecified)
board.cache_hierarchy.ruby_system.m_hitLatencyHistSeqr::total    317467918                       (Unspecified)
board.cache_hierarchy.ruby_system.m_missLatencyHistSeqr::bucket_size          256                       (Unspecified)
board.cache_hierarchy.ruby_system.m_missLatencyHistSeqr::max_bucket         2559                       (Unspecified)
board.cache_hierarchy.ruby_system.m_missLatencyHistSeqr::samples     58719925                       (Unspecified)
board.cache_hierarchy.ruby_system.m_missLatencyHistSeqr::mean    28.311556                       (Unspecified)
board.cache_hierarchy.ruby_system.m_missLatencyHistSeqr::gmean    16.378067                       (Unspecified)
board.cache_hierarchy.ruby_system.m_missLatencyHistSeqr::stdev    61.773844                       (Unspecified)
board.cache_hierarchy.ruby_system.m_missLatencyHistSeqr |    58561732     99.73%     99.73% |       63352      0.11%     99.84% |       12545      0.02%     99.86% |       28503      0.05%     99.91% |       52645      0.09%    100.00% |        1028      0.00%    100.00% |         120      0.00%    100.00% |           0      0.00%    100.00% |           0      0.00%    100.00% |           0      0.00%    100.00% (Unspecified)
board.cache_hierarchy.ruby_system.m_missLatencyHistSeqr::total     58719925                       (Unspecified)
board.cache_hierarchy.ruby_system.delayVCHist.vnet_0::bucket_size           16                       # delay histogram for vnet_0 (Unspecified)
board.cache_hierarchy.ruby_system.delayVCHist.vnet_0::max_bucket          159                       # delay histogram for vnet_0 (Unspecified)
board.cache_hierarchy.ruby_system.delayVCHist.vnet_0::samples    113300988                       # delay histogram for vnet_0 (Unspecified)
board.cache_hierarchy.ruby_system.delayVCHist.vnet_0::mean     0.174347                       # delay histogram for vnet_0 (Unspecified)
board.cache_hierarchy.ruby_system.delayVCHist.vnet_0::stdev     1.190973                       # delay histogram for vnet_0 (Unspecified)
board.cache_hierarchy.ruby_system.delayVCHist.vnet_0 |   113244142     99.95%     99.95% |       56677      0.05%    100.00% |         144      0.00%    100.00% |          23      0.00%    100.00% |           1      0.00%    100.00% |           0      0.00%    100.00% |           0      0.00%    100.00% |           1      0.00%    100.00% |           0      0.00%    100.00% |           0      0.00%    100.00% # delay histogram for vnet_0 (Unspecified)
board.cache_hierarchy.ruby_system.delayVCHist.vnet_0::total    113300988                       # delay histogram for vnet_0 (Unspecified)
board.cache_hierarchy.ruby_system.delayVCHist.vnet_1::bucket_size            2                       # delay histogram for vnet_1 (Unspecified)
board.cache_hierarchy.ruby_system.delayVCHist.vnet_1::max_bucket           19                       # delay histogram for vnet_1 (Unspecified)
board.cache_hierarchy.ruby_system.delayVCHist.vnet_1::samples     95981138                       # delay histogram for vnet_1 (Unspecified)
board.cache_hierarchy.ruby_system.delayVCHist.vnet_1::mean     0.006560                       # delay histogram for vnet_1 (Unspecified)
board.cache_hierarchy.ruby_system.delayVCHist.vnet_1::stdev     0.190997                       # delay histogram for vnet_1 (Unspecified)
board.cache_hierarchy.ruby_system.delayVCHist.vnet_1 |    95842268     99.86%     99.86% |       45332      0.05%     99.90% |       33547      0.03%     99.94% |       37574      0.04%     99.98% |       22415      0.02%    100.00% |           2      0.00%    100.00% |           0      0.00%    100.00% |           0      0.00%    100.00% |           0      0.00%    100.00% |           0      0.00%    100.00% # delay histogram for vnet_1 (Unspecified)
board.cache_hierarchy.ruby_system.delayVCHist.vnet_1::total     95981138                       # delay histogram for vnet_1 (Unspecified)
board.cache_hierarchy.ruby_system.delayVCHist.vnet_2::bucket_size            1                       # delay histogram for vnet_2 (Unspecified)
board.cache_hierarchy.ruby_system.delayVCHist.vnet_2::max_bucket            9                       # delay histogram for vnet_2 (Unspecified)
board.cache_hierarchy.ruby_system.delayVCHist.vnet_2::samples       157642                       # delay histogram for vnet_2 (Unspecified)
board.cache_hierarchy.ruby_system.delayVCHist.vnet_2::mean     0.000964                       # delay histogram for vnet_2 (Unspecified)
board.cache_hierarchy.ruby_system.delayVCHist.vnet_2::stdev     0.043903                       # delay histogram for vnet_2 (Unspecified)
board.cache_hierarchy.ruby_system.delayVCHist.vnet_2 |      157566     99.95%     99.95% |           0      0.00%     99.95% |          76      0.05%    100.00% |           0      0.00%    100.00% |           0      0.00%    100.00% |           0      0.00%    100.00% |           0      0.00%    100.00% |           0      0.00%    100.00% |           0      0.00%    100.00% |           0      0.00%    100.00% # delay histogram for vnet_2 (Unspecified)
board.cache_hierarchy.ruby_system.delayVCHist.vnet_2::total       157642                       # delay histogram for vnet_2 (Unspecified)
board.cache_hierarchy.ruby_system.Directory_Controller.Fetch |     2456143     49.98%     49.98% |     2457897     50.02%    100.00% (Unspecified)
board.cache_hierarchy.ruby_system.Directory_Controller.Fetch::total      4914040                       (Unspecified)
board.cache_hierarchy.ruby_system.Directory_Controller.Data |      336071     49.62%     49.62% |      341197     50.38%    100.00% (Unspecified)
board.cache_hierarchy.ruby_system.Directory_Controller.Data::total       677268                       (Unspecified)
board.cache_hierarchy.ruby_system.Directory_Controller.Memory_Data |     2456142     49.98%     49.98% |     2457897     50.02%    100.00% (Unspecified)
board.cache_hierarchy.ruby_system.Directory_Controller.Memory_Data::total      4914039                       (Unspecified)
board.cache_hierarchy.ruby_system.Directory_Controller.Memory_Ack |      336070     49.62%     49.62% |      341197     50.38%    100.00% (Unspecified)
board.cache_hierarchy.ruby_system.Directory_Controller.Memory_Ack::total       677267                       (Unspecified)
board.cache_hierarchy.ruby_system.Directory_Controller.CleanReplacement |     2115976     50.04%     50.04% |     2112604     49.96%    100.00% (Unspecified)
board.cache_hierarchy.ruby_system.Directory_Controller.CleanReplacement::total      4228580                       (Unspecified)
board.cache_hierarchy.ruby_system.Directory_Controller.I.Fetch |     2456143     49.98%     49.98% |     2457897     50.02%    100.00% (Unspecified)
board.cache_hierarchy.ruby_system.Directory_Controller.I.Fetch::total      4914040                       (Unspecified)
board.cache_hierarchy.ruby_system.Directory_Controller.M.Data |      336071     49.62%     49.62% |      341197     50.38%    100.00% (Unspecified)
board.cache_hierarchy.ruby_system.Directory_Controller.M.Data::total       677268                       (Unspecified)
board.cache_hierarchy.ruby_system.Directory_Controller.M.CleanReplacement |     2115976     50.04%     50.04% |     2112604     49.96%    100.00% (Unspecified)
board.cache_hierarchy.ruby_system.Directory_Controller.M.CleanReplacement::total      4228580                       (Unspecified)
board.cache_hierarchy.ruby_system.Directory_Controller.IM.Memory_Data |     2456142     49.98%     49.98% |     2457897     50.02%    100.00% (Unspecified)
board.cache_hierarchy.ruby_system.Directory_Controller.IM.Memory_Data::total      4914039                       (Unspecified)
board.cache_hierarchy.ruby_system.Directory_Controller.MI.Memory_Ack |      336070     49.62%     49.62% |      341197     50.38%    100.00% (Unspecified)
board.cache_hierarchy.ruby_system.Directory_Controller.MI.Memory_Ack::total       677267                       (Unspecified)
board.cache_hierarchy.ruby_system.L1Cache_Controller.Load |    33912776     49.96%     49.96% |    33972831     50.04%    100.00% (Unspecified)
board.cache_hierarchy.ruby_system.L1Cache_Controller.Load::total     67885607                       (Unspecified)
board.cache_hierarchy.ruby_system.L1Cache_Controller.Ifetch |   150440003     49.71%     49.71% |   152178032     50.29%    100.00% (Unspecified)
board.cache_hierarchy.ruby_system.L1Cache_Controller.Ifetch::total    302618035                       (Unspecified)
board.cache_hierarchy.ruby_system.L1Cache_Controller.Store |     2788861     49.03%     49.03% |     2899604     50.97%    100.00% (Unspecified)
board.cache_hierarchy.ruby_system.L1Cache_Controller.Store::total      5688465                       (Unspecified)
board.cache_hierarchy.ruby_system.L1Cache_Controller.Inv |       78272     53.28%     53.28% |       68640     46.72%    100.00% (Unspecified)
board.cache_hierarchy.ruby_system.L1Cache_Controller.Inv::total       146912                       (Unspecified)
board.cache_hierarchy.ruby_system.L1Cache_Controller.L1_Replacement |    29478197     50.21%     50.21% |    29234506     49.79%    100.00% (Unspecified)
board.cache_hierarchy.ruby_system.L1Cache_Controller.L1_Replacement::total     58712703                       (Unspecified)
board.cache_hierarchy.ruby_system.L1Cache_Controller.Fwd_GETX |           6      1.52%      1.52% |         389     98.48%    100.00% (Unspecified)
board.cache_hierarchy.ruby_system.L1Cache_Controller.Fwd_GETX::total          395                       (Unspecified)
board.cache_hierarchy.ruby_system.L1Cache_Controller.Fwd_GETS |        9815     94.97%     94.97% |         520      5.03%    100.00% (Unspecified)
board.cache_hierarchy.ruby_system.L1Cache_Controller.Fwd_GETS::total        10335                       (Unspecified)
board.cache_hierarchy.ruby_system.L1Cache_Controller.Data |        4393     98.85%     98.85% |          51      1.15%    100.00% (Unspecified)
board.cache_hierarchy.ruby_system.L1Cache_Controller.Data::total         4444                       (Unspecified)
board.cache_hierarchy.ruby_system.L1Cache_Controller.Data_Exclusive |    12462595     50.29%     50.29% |    12321000     49.71%    100.00% (Unspecified)
board.cache_hierarchy.ruby_system.L1Cache_Controller.Data_Exclusive::total     24783595                       (Unspecified)
board.cache_hierarchy.ruby_system.L1Cache_Controller.DataS_fromL1 |         520      5.03%      5.03% |        9815     94.97%    100.00% (Unspecified)
board.cache_hierarchy.ruby_system.L1Cache_Controller.DataS_fromL1::total        10335                       (Unspecified)
board.cache_hierarchy.ruby_system.L1Cache_Controller.Data_all_Acks |    17012087     50.15%     50.15% |    16909328     49.85%    100.00% (Unspecified)
board.cache_hierarchy.ruby_system.L1Cache_Controller.Data_all_Acks::total     33921415                       (Unspecified)
board.cache_hierarchy.ruby_system.L1Cache_Controller.Ack |          83     61.03%     61.03% |          53     38.97%    100.00% (Unspecified)
board.cache_hierarchy.ruby_system.L1Cache_Controller.Ack::total          136                       (Unspecified)
board.cache_hierarchy.ruby_system.L1Cache_Controller.Ack_all |        4476     97.73%     97.73% |         104      2.27%    100.00% (Unspecified)
board.cache_hierarchy.ruby_system.L1Cache_Controller.Ack_all::total         4580                       (Unspecified)
board.cache_hierarchy.ruby_system.L1Cache_Controller.WB_Ack |    13741050     50.36%     50.36% |    13543030     49.64%    100.00% (Unspecified)
board.cache_hierarchy.ruby_system.L1Cache_Controller.WB_Ack::total     27284080                       (Unspecified)
board.cache_hierarchy.ruby_system.L1Cache_Controller.NP.Load |    28059402     50.14%     50.14% |    27905063     49.86%    100.00% (Unspecified)
board.cache_hierarchy.ruby_system.L1Cache_Controller.NP.Load::total     55964465                       (Unspecified)
board.cache_hierarchy.ruby_system.L1Cache_Controller.NP.Ifetch |      138549     56.47%     56.47% |      106782     43.53%    100.00% (Unspecified)
board.cache_hierarchy.ruby_system.L1Cache_Controller.NP.Ifetch::total       245331                       (Unspecified)
board.cache_hierarchy.ruby_system.L1Cache_Controller.NP.Store |     1280237     51.15%     51.15% |     1222677     48.85%    100.00% (Unspecified)
board.cache_hierarchy.ruby_system.L1Cache_Controller.NP.Store::total      2502914                       (Unspecified)
board.cache_hierarchy.ruby_system.L1Cache_Controller.NP.Inv |       75653     54.89%     54.89% |       62181     45.11%    100.00% (Unspecified)
board.cache_hierarchy.ruby_system.L1Cache_Controller.NP.Inv::total       137834                       (Unspecified)
board.cache_hierarchy.ruby_system.L1Cache_Controller.I.Load |          67      1.53%      1.53% |        4325     98.47%    100.00% (Unspecified)
board.cache_hierarchy.ruby_system.L1Cache_Controller.I.Load::total         4392                       (Unspecified)
board.cache_hierarchy.ruby_system.L1Cache_Controller.I.Ifetch |        1339     49.87%     49.87% |        1346     50.13%    100.00% (Unspecified)
board.cache_hierarchy.ruby_system.L1Cache_Controller.I.Ifetch::total         2685                       (Unspecified)
board.cache_hierarchy.ruby_system.L1Cache_Controller.I.Store |           2     66.67%     66.67% |           1     33.33%    100.00% (Unspecified)
board.cache_hierarchy.ruby_system.L1Cache_Controller.I.Store::total            3                       (Unspecified)
board.cache_hierarchy.ruby_system.L1Cache_Controller.I.L1_Replacement |        1209     50.82%     50.82% |        1170     49.18%    100.00% (Unspecified)
board.cache_hierarchy.ruby_system.L1Cache_Controller.I.L1_Replacement::total         2379                       (Unspecified)
board.cache_hierarchy.ruby_system.L1Cache_Controller.S.Load |       64514     35.69%     35.69% |      116268     64.31%    100.00% (Unspecified)
board.cache_hierarchy.ruby_system.L1Cache_Controller.S.Load::total       180782                       (Unspecified)
board.cache_hierarchy.ruby_system.L1Cache_Controller.S.Ifetch |   150300115     49.71%     49.71% |   152069904     50.29%    100.00% (Unspecified)
board.cache_hierarchy.ruby_system.L1Cache_Controller.S.Ifetch::total    302370019                       (Unspecified)
board.cache_hierarchy.ruby_system.L1Cache_Controller.S.Store |          83     61.03%     61.03% |          53     38.97%    100.00% (Unspecified)
board.cache_hierarchy.ruby_system.L1Cache_Controller.S.Store::total          136                       (Unspecified)
board.cache_hierarchy.ruby_system.L1Cache_Controller.S.Inv |        2567     28.50%     28.50% |        6440     71.50%    100.00% (Unspecified)
board.cache_hierarchy.ruby_system.L1Cache_Controller.S.Inv::total         9007                       (Unspecified)
board.cache_hierarchy.ruby_system.L1Cache_Controller.S.L1_Replacement |    15735913     50.07%     50.07% |    15690306     49.93%    100.00% (Unspecified)
board.cache_hierarchy.ruby_system.L1Cache_Controller.S.L1_Replacement::total     31426219                       (Unspecified)
board.cache_hierarchy.ruby_system.L1Cache_Controller.E.Load |     5765730     49.33%     49.33% |     5921789     50.67%    100.00% (Unspecified)
board.cache_hierarchy.ruby_system.L1Cache_Controller.E.Load::total     11687519                       (Unspecified)
board.cache_hierarchy.ruby_system.L1Cache_Controller.E.Store |      640393     50.11%     50.11% |      637455     49.89%    100.00% (Unspecified)
board.cache_hierarchy.ruby_system.L1Cache_Controller.E.Store::total      1277848                       (Unspecified)
board.cache_hierarchy.ruby_system.L1Cache_Controller.E.Inv |          47     75.81%     75.81% |          15     24.19%    100.00% (Unspecified)
board.cache_hierarchy.ruby_system.L1Cache_Controller.E.Inv::total           62                       (Unspecified)
board.cache_hierarchy.ruby_system.L1Cache_Controller.E.L1_Replacement |    11820354     50.29%     50.29% |    11682852     49.71%    100.00% (Unspecified)
board.cache_hierarchy.ruby_system.L1Cache_Controller.E.L1_Replacement::total     23503206                       (Unspecified)
board.cache_hierarchy.ruby_system.L1Cache_Controller.E.Fwd_GETX |           1      0.26%      0.26% |         387     99.74%    100.00% (Unspecified)
board.cache_hierarchy.ruby_system.L1Cache_Controller.E.Fwd_GETX::total          388                       (Unspecified)
board.cache_hierarchy.ruby_system.L1Cache_Controller.E.Fwd_GETS |        1800     86.12%     86.12% |         290     13.88%    100.00% (Unspecified)
board.cache_hierarchy.ruby_system.L1Cache_Controller.E.Fwd_GETS::total         2090                       (Unspecified)
board.cache_hierarchy.ruby_system.L1Cache_Controller.M.Load |       22846     47.70%     47.70% |       25048     52.30%    100.00% (Unspecified)
board.cache_hierarchy.ruby_system.L1Cache_Controller.M.Load::total        47894                       (Unspecified)
board.cache_hierarchy.ruby_system.L1Cache_Controller.M.Store |      864438     45.40%     45.40% |     1039418     54.60%    100.00% (Unspecified)
board.cache_hierarchy.ruby_system.L1Cache_Controller.M.Store::total      1903856                       (Unspecified)
board.cache_hierarchy.ruby_system.L1Cache_Controller.M.Inv |           5     55.56%     55.56% |           4     44.44%    100.00% (Unspecified)
board.cache_hierarchy.ruby_system.L1Cache_Controller.M.Inv::total            9                       (Unspecified)
board.cache_hierarchy.ruby_system.L1Cache_Controller.M.L1_Replacement |     1920696     50.80%     50.80% |     1860178     49.20%    100.00% (Unspecified)
board.cache_hierarchy.ruby_system.L1Cache_Controller.M.L1_Replacement::total      3780874                       (Unspecified)
board.cache_hierarchy.ruby_system.L1Cache_Controller.M.Fwd_GETX |           3     60.00%     60.00% |           2     40.00%    100.00% (Unspecified)
board.cache_hierarchy.ruby_system.L1Cache_Controller.M.Fwd_GETX::total            5                       (Unspecified)
board.cache_hierarchy.ruby_system.L1Cache_Controller.M.Fwd_GETS |           9     90.00%     90.00% |           1     10.00%    100.00% (Unspecified)
board.cache_hierarchy.ruby_system.L1Cache_Controller.M.Fwd_GETS::total           10                       (Unspecified)
board.cache_hierarchy.ruby_system.L1Cache_Controller.IS.L1_Replacement |          22    100.00%    100.00% |           0      0.00%    100.00% (Unspecified)
board.cache_hierarchy.ruby_system.L1Cache_Controller.IS.L1_Replacement::total           22                       (Unspecified)
board.cache_hierarchy.ruby_system.L1Cache_Controller.IS.Data_Exclusive |    12462595     50.29%     50.29% |    12321000     49.71%    100.00% (Unspecified)
board.cache_hierarchy.ruby_system.L1Cache_Controller.IS.Data_Exclusive::total     24783595                       (Unspecified)
board.cache_hierarchy.ruby_system.L1Cache_Controller.IS.DataS_fromL1 |         520      5.03%      5.03% |        9815     94.97%    100.00% (Unspecified)
board.cache_hierarchy.ruby_system.L1Cache_Controller.IS.DataS_fromL1::total        10335                       (Unspecified)
board.cache_hierarchy.ruby_system.L1Cache_Controller.IS.Data_all_Acks |    15736242     50.08%     50.08% |    15686701     49.92%    100.00% (Unspecified)
board.cache_hierarchy.ruby_system.L1Cache_Controller.IS.Data_all_Acks::total     31422943                       (Unspecified)
board.cache_hierarchy.ruby_system.L1Cache_Controller.IM.L1_Replacement |           3    100.00%    100.00% |           0      0.00%    100.00% (Unspecified)
board.cache_hierarchy.ruby_system.L1Cache_Controller.IM.L1_Replacement::total            3                       (Unspecified)
board.cache_hierarchy.ruby_system.L1Cache_Controller.IM.Data |        4393     98.85%     98.85% |          51      1.15%    100.00% (Unspecified)
board.cache_hierarchy.ruby_system.L1Cache_Controller.IM.Data::total         4444                       (Unspecified)
board.cache_hierarchy.ruby_system.L1Cache_Controller.IM.Data_all_Acks |     1275845     51.07%     51.07% |     1222627     48.93%    100.00% (Unspecified)
board.cache_hierarchy.ruby_system.L1Cache_Controller.IM.Data_all_Acks::total      2498472                       (Unspecified)
board.cache_hierarchy.ruby_system.L1Cache_Controller.SM.Ack |          83     61.03%     61.03% |          53     38.97%    100.00% (Unspecified)
board.cache_hierarchy.ruby_system.L1Cache_Controller.SM.Ack::total          136                       (Unspecified)
board.cache_hierarchy.ruby_system.L1Cache_Controller.SM.Ack_all |        4476     97.73%     97.73% |         104      2.27%    100.00% (Unspecified)
board.cache_hierarchy.ruby_system.L1Cache_Controller.SM.Ack_all::total         4580                       (Unspecified)
board.cache_hierarchy.ruby_system.L1Cache_Controller.M_I.Load |         134     31.24%     31.24% |         295     68.76%    100.00% (Unspecified)
board.cache_hierarchy.ruby_system.L1Cache_Controller.M_I.Load::total          429                       (Unspecified)
board.cache_hierarchy.ruby_system.L1Cache_Controller.M_I.Store |          95    100.00%    100.00% |           0      0.00%    100.00% (Unspecified)
board.cache_hierarchy.ruby_system.L1Cache_Controller.M_I.Store::total           95                       (Unspecified)
board.cache_hierarchy.ruby_system.L1Cache_Controller.M_I.Fwd_GETX |           2    100.00%    100.00% |           0      0.00%    100.00% (Unspecified)
board.cache_hierarchy.ruby_system.L1Cache_Controller.M_I.Fwd_GETX::total            2                       (Unspecified)
board.cache_hierarchy.ruby_system.L1Cache_Controller.M_I.Fwd_GETS |        8006     97.22%     97.22% |         229      2.78%    100.00% (Unspecified)
board.cache_hierarchy.ruby_system.L1Cache_Controller.M_I.Fwd_GETS::total         8235                       (Unspecified)
board.cache_hierarchy.ruby_system.L1Cache_Controller.M_I.WB_Ack |    13733042     50.35%     50.35% |    13542801     49.65%    100.00% (Unspecified)
board.cache_hierarchy.ruby_system.L1Cache_Controller.M_I.WB_Ack::total     27275843                       (Unspecified)
board.cache_hierarchy.ruby_system.L1Cache_Controller.SINK_WB_ACK.Load |          83     65.87%     65.87% |          43     34.13%    100.00% (Unspecified)
board.cache_hierarchy.ruby_system.L1Cache_Controller.SINK_WB_ACK.Load::total          126                       (Unspecified)
board.cache_hierarchy.ruby_system.L1Cache_Controller.SINK_WB_ACK.Store |        3613    100.00%    100.00% |           0      0.00%    100.00% (Unspecified)
board.cache_hierarchy.ruby_system.L1Cache_Controller.SINK_WB_ACK.Store::total         3613                       (Unspecified)
board.cache_hierarchy.ruby_system.L1Cache_Controller.SINK_WB_ACK.WB_Ack |        8008     97.22%     97.22% |         229      2.78%    100.00% (Unspecified)
board.cache_hierarchy.ruby_system.L1Cache_Controller.SINK_WB_ACK.WB_Ack::total         8237                       (Unspecified)
board.cache_hierarchy.ruby_system.L2Cache_Controller.L1_GET_INSTR |      129754     52.28%     52.28% |      118449     47.72%    100.00% (Unspecified)
board.cache_hierarchy.ruby_system.L2Cache_Controller.L1_GET_INSTR::total       248203                       (Unspecified)
board.cache_hierarchy.ruby_system.L2Cache_Controller.L1_GETS |    32102464     57.35%     57.35% |    23874664     42.65%    100.00% (Unspecified)
board.cache_hierarchy.ruby_system.L2Cache_Controller.L1_GETS::total     55977128                       (Unspecified)
board.cache_hierarchy.ruby_system.L2Cache_Controller.L1_GETX |     1244842     49.73%     49.73% |     1258313     50.27%    100.00% (Unspecified)
board.cache_hierarchy.ruby_system.L2Cache_Controller.L1_GETX::total      2503155                       (Unspecified)
board.cache_hierarchy.ruby_system.L2Cache_Controller.L1_UPGRADE |          63     46.32%     46.32% |          73     53.68%    100.00% (Unspecified)
board.cache_hierarchy.ruby_system.L2Cache_Controller.L1_UPGRADE::total          136                       (Unspecified)
board.cache_hierarchy.ruby_system.L2Cache_Controller.L1_PUTX |    13600545     49.83%     49.83% |    13691770     50.17%    100.00% (Unspecified)
board.cache_hierarchy.ruby_system.L2Cache_Controller.L1_PUTX::total     27292315                       (Unspecified)
board.cache_hierarchy.ruby_system.L2Cache_Controller.L1_PUTX_old |           0      0.00%      0.00% |           2    100.00%    100.00% (Unspecified)
board.cache_hierarchy.ruby_system.L2Cache_Controller.L1_PUTX_old::total            2                       (Unspecified)
board.cache_hierarchy.ruby_system.L2Cache_Controller.L2_Replacement |      336069     49.62%     49.62% |      341192     50.38%    100.00% (Unspecified)
board.cache_hierarchy.ruby_system.L2Cache_Controller.L2_Replacement::total       677261                       (Unspecified)
board.cache_hierarchy.ruby_system.L2Cache_Controller.L2_Replacement_clean |     2115978     50.04%     50.04% |     2112609     49.96%    100.00% (Unspecified)
board.cache_hierarchy.ruby_system.L2Cache_Controller.L2_Replacement_clean::total      4228587                       (Unspecified)
board.cache_hierarchy.ruby_system.L2Cache_Controller.Mem_Data |     2456142     49.98%     49.98% |     2457897     50.02%    100.00% (Unspecified)
board.cache_hierarchy.ruby_system.L2Cache_Controller.Mem_Data::total      4914039                       (Unspecified)
board.cache_hierarchy.ruby_system.L2Cache_Controller.Mem_Ack |     2452046     49.98%     49.98% |     2453801     50.02%    100.00% (Unspecified)
board.cache_hierarchy.ruby_system.L2Cache_Controller.Mem_Ack::total      4905847                       (Unspecified)
board.cache_hierarchy.ruby_system.L2Cache_Controller.WB_Data |        4209     99.60%     99.60% |          17      0.40%    100.00% (Unspecified)
board.cache_hierarchy.ruby_system.L2Cache_Controller.WB_Data::total         4226                       (Unspecified)
board.cache_hierarchy.ruby_system.L2Cache_Controller.WB_Data_clean |        3369     55.07%     55.07% |        2749     44.93%    100.00% (Unspecified)
board.cache_hierarchy.ruby_system.L2Cache_Controller.WB_Data_clean::total         6118                       (Unspecified)
board.cache_hierarchy.ruby_system.L2Cache_Controller.Ack |       32123     50.77%     50.77% |       31144     49.23%    100.00% (Unspecified)
board.cache_hierarchy.ruby_system.L2Cache_Controller.Ack::total        63267                       (Unspecified)
board.cache_hierarchy.ruby_system.L2Cache_Controller.Ack_all |       39700     50.22%     50.22% |       39356     49.78%    100.00% (Unspecified)
board.cache_hierarchy.ruby_system.L2Cache_Controller.Ack_all::total        79056                       (Unspecified)
board.cache_hierarchy.ruby_system.L2Cache_Controller.Unblock |        7576     73.30%     73.30% |        2759     26.70%    100.00% (Unspecified)
board.cache_hierarchy.ruby_system.L2Cache_Controller.Unblock::total        10335                       (Unspecified)
board.cache_hierarchy.ruby_system.L2Cache_Controller.Exclusive_Unblock |    13596160     49.83%     49.83% |    13690487     50.17%    100.00% (Unspecified)
board.cache_hierarchy.ruby_system.L2Cache_Controller.Exclusive_Unblock::total     27286647                       (Unspecified)
board.cache_hierarchy.ruby_system.L2Cache_Controller.NP.L1_GET_INSTR |       33252     49.51%     49.51% |       33906     50.49%    100.00% (Unspecified)
board.cache_hierarchy.ruby_system.L2Cache_Controller.NP.L1_GET_INSTR::total        67158                       (Unspecified)
board.cache_hierarchy.ruby_system.L2Cache_Controller.NP.L1_GETS |     2383055     50.02%     50.02% |     2381132     49.98%    100.00% (Unspecified)
board.cache_hierarchy.ruby_system.L2Cache_Controller.NP.L1_GETS::total      4764187                       (Unspecified)
board.cache_hierarchy.ruby_system.L2Cache_Controller.NP.L1_GETX |       39836     48.17%     48.17% |       42859     51.83%    100.00% (Unspecified)
board.cache_hierarchy.ruby_system.L2Cache_Controller.NP.L1_GETX::total        82695                       (Unspecified)
board.cache_hierarchy.ruby_system.L2Cache_Controller.SS.L1_GET_INSTR |       81709     54.18%     54.18% |       69114     45.82%    100.00% (Unspecified)
board.cache_hierarchy.ruby_system.L2Cache_Controller.SS.L1_GET_INSTR::total       150823                       (Unspecified)
board.cache_hierarchy.ruby_system.L2Cache_Controller.SS.L1_GETS |    19730061     63.31%     63.31% |    11432202     36.69%    100.00% (Unspecified)
board.cache_hierarchy.ruby_system.L2Cache_Controller.SS.L1_GETS::total     31162263                       (Unspecified)
board.cache_hierarchy.ruby_system.L2Cache_Controller.SS.L1_GETX |        4412     99.28%     99.28% |          32      0.72%    100.00% (Unspecified)
board.cache_hierarchy.ruby_system.L2Cache_Controller.SS.L1_GETX::total         4444                       (Unspecified)
board.cache_hierarchy.ruby_system.L2Cache_Controller.SS.L1_UPGRADE |          63     46.32%     46.32% |          73     53.68%    100.00% (Unspecified)
board.cache_hierarchy.ruby_system.L2Cache_Controller.SS.L1_UPGRADE::total          136                       (Unspecified)
board.cache_hierarchy.ruby_system.L2Cache_Controller.SS.L1_PUTX |        6185     75.11%     75.11% |        2050     24.89%    100.00% (Unspecified)
board.cache_hierarchy.ruby_system.L2Cache_Controller.SS.L1_PUTX::total         8235                       (Unspecified)
board.cache_hierarchy.ruby_system.L2Cache_Controller.SS.L2_Replacement |         364     92.15%     92.15% |          31      7.85%    100.00% (Unspecified)
board.cache_hierarchy.ruby_system.L2Cache_Controller.SS.L2_Replacement::total          395                       (Unspecified)
board.cache_hierarchy.ruby_system.L2Cache_Controller.SS.L2_Replacement_clean |       39314     50.02%     50.02% |       39285     49.98%    100.00% (Unspecified)
board.cache_hierarchy.ruby_system.L2Cache_Controller.SS.L2_Replacement_clean::total        78599                       (Unspecified)
board.cache_hierarchy.ruby_system.L2Cache_Controller.M.L1_GETS |     9971817     49.79%     49.79% |    10053923     50.21%    100.00% (Unspecified)
board.cache_hierarchy.ruby_system.L2Cache_Controller.M.L1_GETS::total     20025740                       (Unspecified)
board.cache_hierarchy.ruby_system.L2Cache_Controller.M.L1_GETX |     1200050     49.68%     49.68% |     1215333     50.32%    100.00% (Unspecified)
board.cache_hierarchy.ruby_system.L2Cache_Controller.M.L1_GETX::total      2415383                       (Unspecified)
board.cache_hierarchy.ruby_system.L2Cache_Controller.M.L2_Replacement |      335704     49.60%     49.60% |      341156     50.40%    100.00% (Unspecified)
board.cache_hierarchy.ruby_system.L2Cache_Controller.M.L2_Replacement::total       676860                       (Unspecified)
board.cache_hierarchy.ruby_system.L2Cache_Controller.M.L2_Replacement_clean |     2076641     50.04%     50.04% |     2073282     49.96%    100.00% (Unspecified)
board.cache_hierarchy.ruby_system.L2Cache_Controller.M.L2_Replacement_clean::total      4149923                       (Unspecified)
board.cache_hierarchy.ruby_system.L2Cache_Controller.MT.L1_GETS |        7576     73.30%     73.30% |        2759     26.70%    100.00% (Unspecified)
board.cache_hierarchy.ruby_system.L2Cache_Controller.MT.L1_GETS::total        10335                       (Unspecified)
board.cache_hierarchy.ruby_system.L2Cache_Controller.MT.L1_GETX |         383     96.96%     96.96% |          12      3.04%    100.00% (Unspecified)
board.cache_hierarchy.ruby_system.L2Cache_Controller.MT.L1_GETX::total          395                       (Unspecified)
board.cache_hierarchy.ruby_system.L2Cache_Controller.MT.L1_PUTX |    13588175     49.82%     49.82% |    13687668     50.18%    100.00% (Unspecified)
board.cache_hierarchy.ruby_system.L2Cache_Controller.MT.L1_PUTX::total     27275843                       (Unspecified)
board.cache_hierarchy.ruby_system.L2Cache_Controller.MT.L1_PUTX_old |           0      0.00%      0.00% |           2    100.00%    100.00% (Unspecified)
board.cache_hierarchy.ruby_system.L2Cache_Controller.MT.L1_PUTX_old::total            2                       (Unspecified)
board.cache_hierarchy.ruby_system.L2Cache_Controller.MT.L2_Replacement |           1     16.67%     16.67% |           5     83.33%    100.00% (Unspecified)
board.cache_hierarchy.ruby_system.L2Cache_Controller.MT.L2_Replacement::total            6                       (Unspecified)
board.cache_hierarchy.ruby_system.L2Cache_Controller.MT.L2_Replacement_clean |          23     35.38%     35.38% |          42     64.62%    100.00% (Unspecified)
board.cache_hierarchy.ruby_system.L2Cache_Controller.MT.L2_Replacement_clean::total           65                       (Unspecified)
board.cache_hierarchy.ruby_system.L2Cache_Controller.M_I.L1_GET_INSTR |         120     64.17%     64.17% |          67     35.83%    100.00% (Unspecified)
board.cache_hierarchy.ruby_system.L2Cache_Controller.M_I.L1_GET_INSTR::total          187                       (Unspecified)
board.cache_hierarchy.ruby_system.L2Cache_Controller.M_I.L1_GETS |          53     51.96%     51.96% |          49     48.04%    100.00% (Unspecified)
board.cache_hierarchy.ruby_system.L2Cache_Controller.M_I.L1_GETS::total          102                       (Unspecified)
board.cache_hierarchy.ruby_system.L2Cache_Controller.M_I.L1_GETX |          68     47.55%     47.55% |          75     52.45%    100.00% (Unspecified)
board.cache_hierarchy.ruby_system.L2Cache_Controller.M_I.L1_GETX::total          143                       (Unspecified)
board.cache_hierarchy.ruby_system.L2Cache_Controller.M_I.Mem_Ack |     2452046     49.98%     49.98% |     2453801     50.02%    100.00% (Unspecified)
board.cache_hierarchy.ruby_system.L2Cache_Controller.M_I.Mem_Ack::total      4905847                       (Unspecified)
board.cache_hierarchy.ruby_system.L2Cache_Controller.MT_I.WB_Data |           0      0.00%      0.00% |           2    100.00%    100.00% (Unspecified)
board.cache_hierarchy.ruby_system.L2Cache_Controller.MT_I.WB_Data::total            2                       (Unspecified)
board.cache_hierarchy.ruby_system.L2Cache_Controller.MT_I.Ack_all |           1     25.00%     25.00% |           3     75.00%    100.00% (Unspecified)
board.cache_hierarchy.ruby_system.L2Cache_Controller.MT_I.Ack_all::total            4                       (Unspecified)
board.cache_hierarchy.ruby_system.L2Cache_Controller.MCT_I.WB_Data |           2     28.57%     28.57% |           5     71.43%    100.00% (Unspecified)
board.cache_hierarchy.ruby_system.L2Cache_Controller.MCT_I.WB_Data::total            7                       (Unspecified)
board.cache_hierarchy.ruby_system.L2Cache_Controller.MCT_I.Ack_all |          21     36.21%     36.21% |          37     63.79%    100.00% (Unspecified)
board.cache_hierarchy.ruby_system.L2Cache_Controller.MCT_I.Ack_all::total           58                       (Unspecified)
board.cache_hierarchy.ruby_system.L2Cache_Controller.I_I.Ack |       31759     50.51%     50.51% |       31113     49.49%    100.00% (Unspecified)
board.cache_hierarchy.ruby_system.L2Cache_Controller.I_I.Ack::total        62872                       (Unspecified)
board.cache_hierarchy.ruby_system.L2Cache_Controller.I_I.Ack_all |       39314     50.02%     50.02% |       39285     49.98%    100.00% (Unspecified)
board.cache_hierarchy.ruby_system.L2Cache_Controller.I_I.Ack_all::total        78599                       (Unspecified)
board.cache_hierarchy.ruby_system.L2Cache_Controller.S_I.Ack |         364     92.15%     92.15% |          31      7.85%    100.00% (Unspecified)
board.cache_hierarchy.ruby_system.L2Cache_Controller.S_I.Ack::total          395                       (Unspecified)
board.cache_hierarchy.ruby_system.L2Cache_Controller.S_I.Ack_all |         364     92.15%     92.15% |          31      7.85%    100.00% (Unspecified)
board.cache_hierarchy.ruby_system.L2Cache_Controller.S_I.Ack_all::total          395                       (Unspecified)
board.cache_hierarchy.ruby_system.L2Cache_Controller.ISS.L1_GETS |        3455     54.56%     54.56% |        2877     45.44%    100.00% (Unspecified)
board.cache_hierarchy.ruby_system.L2Cache_Controller.ISS.L1_GETS::total         6332                       (Unspecified)
board.cache_hierarchy.ruby_system.L2Cache_Controller.ISS.Mem_Data |     2379600     50.01%     50.01% |     2378255     49.99%    100.00% (Unspecified)
board.cache_hierarchy.ruby_system.L2Cache_Controller.ISS.Mem_Data::total      4757855                       (Unspecified)
board.cache_hierarchy.ruby_system.L2Cache_Controller.IS.L1_GET_INSTR |       14673     48.85%     48.85% |       15362     51.15%    100.00% (Unspecified)
board.cache_hierarchy.ruby_system.L2Cache_Controller.IS.L1_GET_INSTR::total        30035                       (Unspecified)
board.cache_hierarchy.ruby_system.L2Cache_Controller.IS.Mem_Data |       36707     49.95%     49.95% |       36783     50.05%    100.00% (Unspecified)
board.cache_hierarchy.ruby_system.L2Cache_Controller.IS.Mem_Data::total        73490                       (Unspecified)
board.cache_hierarchy.ruby_system.L2Cache_Controller.IM.L1_GETX |           0      0.00%      0.00% |           1    100.00%    100.00% (Unspecified)
board.cache_hierarchy.ruby_system.L2Cache_Controller.IM.L1_GETX::total            1                       (Unspecified)
board.cache_hierarchy.ruby_system.L2Cache_Controller.IM.Mem_Data |       39835     48.17%     48.17% |       42859     51.83%    100.00% (Unspecified)
board.cache_hierarchy.ruby_system.L2Cache_Controller.IM.Mem_Data::total        82694                       (Unspecified)
board.cache_hierarchy.ruby_system.L2Cache_Controller.SS_MB.L1_GETS |        3757     99.97%     99.97% |           1      0.03%    100.00% (Unspecified)
board.cache_hierarchy.ruby_system.L2Cache_Controller.SS_MB.L1_GETS::total         3758                       (Unspecified)
board.cache_hierarchy.ruby_system.L2Cache_Controller.SS_MB.Exclusive_Unblock |        4475     97.71%     97.71% |         105      2.29%    100.00% (Unspecified)
board.cache_hierarchy.ruby_system.L2Cache_Controller.SS_MB.Exclusive_Unblock::total         4580                       (Unspecified)
board.cache_hierarchy.ruby_system.L2Cache_Controller.MT_MB.L1_GETS |        2690     60.98%     60.98% |        1721     39.02%    100.00% (Unspecified)
board.cache_hierarchy.ruby_system.L2Cache_Controller.MT_MB.L1_GETS::total         4411                       (Unspecified)
board.cache_hierarchy.ruby_system.L2Cache_Controller.MT_MB.L1_GETX |          93     98.94%     98.94% |           1      1.06%    100.00% (Unspecified)
board.cache_hierarchy.ruby_system.L2Cache_Controller.MT_MB.L1_GETX::total           94                       (Unspecified)
board.cache_hierarchy.ruby_system.L2Cache_Controller.MT_MB.L1_PUTX |           0      0.00%      0.00% |           2    100.00%    100.00% (Unspecified)
board.cache_hierarchy.ruby_system.L2Cache_Controller.MT_MB.L1_PUTX::total            2                       (Unspecified)
board.cache_hierarchy.ruby_system.L2Cache_Controller.MT_MB.Exclusive_Unblock |    13591685     49.82%     49.82% |    13690382     50.18%    100.00% (Unspecified)
board.cache_hierarchy.ruby_system.L2Cache_Controller.MT_MB.Exclusive_Unblock::total     27282067                       (Unspecified)
board.cache_hierarchy.ruby_system.L2Cache_Controller.MT_IIB.L1_PUTX |        6185     75.11%     75.11% |        2050     24.89%    100.00% (Unspecified)
board.cache_hierarchy.ruby_system.L2Cache_Controller.MT_IIB.L1_PUTX::total         8235                       (Unspecified)
board.cache_hierarchy.ruby_system.L2Cache_Controller.MT_IIB.WB_Data |        4207     99.76%     99.76% |          10      0.24%    100.00% (Unspecified)
board.cache_hierarchy.ruby_system.L2Cache_Controller.MT_IIB.WB_Data::total         4217                       (Unspecified)
board.cache_hierarchy.ruby_system.L2Cache_Controller.MT_IIB.WB_Data_clean |        3369     55.07%     55.07% |        2749     44.93%    100.00% (Unspecified)
board.cache_hierarchy.ruby_system.L2Cache_Controller.MT_IIB.WB_Data_clean::total         6118                       (Unspecified)
board.cache_hierarchy.ruby_system.L2Cache_Controller.MT_SB.Unblock |        7576     73.30%     73.30% |        2759     26.70%    100.00% (Unspecified)
board.cache_hierarchy.ruby_system.L2Cache_Controller.MT_SB.Unblock::total        10335                       (Unspecified)
board.cache_hierarchy.ruby_system.RequestType.LD.latency_hist_seqr::bucket_size          256                       (Unspecified)
board.cache_hierarchy.ruby_system.RequestType.LD.latency_hist_seqr::max_bucket         2559                       (Unspecified)
board.cache_hierarchy.ruby_system.RequestType.LD.latency_hist_seqr::samples     67885052                       (Unspecified)
board.cache_hierarchy.ruby_system.RequestType.LD.latency_hist_seqr::mean    23.717390                       (Unspecified)
board.cache_hierarchy.ruby_system.RequestType.LD.latency_hist_seqr::gmean    10.051728                       (Unspecified)
board.cache_hierarchy.ruby_system.RequestType.LD.latency_hist_seqr::stdev    57.554601                       (Unspecified)
board.cache_hierarchy.ruby_system.RequestType.LD.latency_hist_seqr |    67734294     99.78%     99.78% |       58321      0.09%     99.86% |       12043      0.02%     99.88% |       28282      0.04%     99.92% |       51012      0.08%    100.00% |         991      0.00%    100.00% |         109      0.00%    100.00% |           0      0.00%    100.00% |           0      0.00%    100.00% |           0      0.00%    100.00% (Unspecified)
board.cache_hierarchy.ruby_system.RequestType.LD.latency_hist_seqr::total     67885052                       (Unspecified)
board.cache_hierarchy.ruby_system.RequestType.LD.hit_latency_hist_seqr::bucket_size            1                       (Unspecified)
board.cache_hierarchy.ruby_system.RequestType.LD.hit_latency_hist_seqr::max_bucket            9                       (Unspecified)
board.cache_hierarchy.ruby_system.RequestType.LD.hit_latency_hist_seqr::samples     11916195                       (Unspecified)
board.cache_hierarchy.ruby_system.RequestType.LD.hit_latency_hist_seqr::mean            1                       (Unspecified)
board.cache_hierarchy.ruby_system.RequestType.LD.hit_latency_hist_seqr::gmean            1                       (Unspecified)
board.cache_hierarchy.ruby_system.RequestType.LD.hit_latency_hist_seqr |           0      0.00%      0.00% |    11916195    100.00%    100.00% |           0      0.00%    100.00% |           0      0.00%    100.00% |           0      0.00%    100.00% |           0      0.00%    100.00% |           0      0.00%    100.00% |           0      0.00%    100.00% |           0      0.00%    100.00% |           0      0.00%    100.00% (Unspecified)
board.cache_hierarchy.ruby_system.RequestType.LD.hit_latency_hist_seqr::total     11916195                       (Unspecified)
board.cache_hierarchy.ruby_system.RequestType.LD.miss_latency_hist_seqr::bucket_size          256                       (Unspecified)
board.cache_hierarchy.ruby_system.RequestType.LD.miss_latency_hist_seqr::max_bucket         2559                       (Unspecified)
board.cache_hierarchy.ruby_system.RequestType.LD.miss_latency_hist_seqr::samples     55968857                       (Unspecified)
board.cache_hierarchy.ruby_system.RequestType.LD.miss_latency_hist_seqr::mean    28.554095                       (Unspecified)
board.cache_hierarchy.ruby_system.RequestType.LD.miss_latency_hist_seqr::gmean    16.429541                       (Unspecified)
board.cache_hierarchy.ruby_system.RequestType.LD.miss_latency_hist_seqr::stdev    62.325953                       (Unspecified)
board.cache_hierarchy.ruby_system.RequestType.LD.miss_latency_hist_seqr |    55818099     99.73%     99.73% |       58321      0.10%     99.83% |       12043      0.02%     99.86% |       28282      0.05%     99.91% |       51012      0.09%    100.00% |         991      0.00%    100.00% |         109      0.00%    100.00% |           0      0.00%    100.00% |           0      0.00%    100.00% |           0      0.00%    100.00% (Unspecified)
board.cache_hierarchy.ruby_system.RequestType.LD.miss_latency_hist_seqr::total     55968857                       (Unspecified)
board.cache_hierarchy.ruby_system.RequestType.ST.latency_hist_seqr::bucket_size          256                       (Unspecified)
board.cache_hierarchy.ruby_system.RequestType.ST.latency_hist_seqr::max_bucket         2559                       (Unspecified)
board.cache_hierarchy.ruby_system.RequestType.ST.latency_hist_seqr::samples      3140101                       (Unspecified)
board.cache_hierarchy.ruby_system.RequestType.ST.latency_hist_seqr::mean    14.097972                       (Unspecified)
board.cache_hierarchy.ruby_system.RequestType.ST.latency_hist_seqr::gmean     8.012038                       (Unspecified)
board.cache_hierarchy.ruby_system.RequestType.ST.latency_hist_seqr::stdev    30.349561                       (Unspecified)
board.cache_hierarchy.ruby_system.RequestType.ST.latency_hist_seqr |     3135509     99.85%     99.85% |        3417      0.11%     99.96% |         426      0.01%     99.98% |          40      0.00%     99.98% |         684      0.02%    100.00% |          17      0.00%    100.00% |           8      0.00%    100.00% |           0      0.00%    100.00% |           0      0.00%    100.00% |           0      0.00%    100.00% (Unspecified)
board.cache_hierarchy.ruby_system.RequestType.ST.latency_hist_seqr::total      3140101                       (Unspecified)
board.cache_hierarchy.ruby_system.RequestType.ST.hit_latency_hist_seqr::bucket_size            1                       (Unspecified)
board.cache_hierarchy.ruby_system.RequestType.ST.hit_latency_hist_seqr::max_bucket            9                       (Unspecified)
board.cache_hierarchy.ruby_system.RequestType.ST.hit_latency_hist_seqr::samples       667286                       (Unspecified)
board.cache_hierarchy.ruby_system.RequestType.ST.hit_latency_hist_seqr::mean            1                       (Unspecified)
board.cache_hierarchy.ruby_system.RequestType.ST.hit_latency_hist_seqr::gmean            1                       (Unspecified)
board.cache_hierarchy.ruby_system.RequestType.ST.hit_latency_hist_seqr |           0      0.00%      0.00% |      667286    100.00%    100.00% |           0      0.00%    100.00% |           0      0.00%    100.00% |           0      0.00%    100.00% |           0      0.00%    100.00% |           0      0.00%    100.00% |           0      0.00%    100.00% |           0      0.00%    100.00% |           0      0.00%    100.00% (Unspecified)
board.cache_hierarchy.ruby_system.RequestType.ST.hit_latency_hist_seqr::total       667286                       (Unspecified)
board.cache_hierarchy.ruby_system.RequestType.ST.miss_latency_hist_seqr::bucket_size          256                       (Unspecified)
board.cache_hierarchy.ruby_system.RequestType.ST.miss_latency_hist_seqr::max_bucket         2559                       (Unspecified)
board.cache_hierarchy.ruby_system.RequestType.ST.miss_latency_hist_seqr::samples      2472815                       (Unspecified)
board.cache_hierarchy.ruby_system.RequestType.ST.miss_latency_hist_seqr::mean    17.632443                       (Unspecified)
board.cache_hierarchy.ruby_system.RequestType.ST.miss_latency_hist_seqr::gmean    14.048077                       (Unspecified)
board.cache_hierarchy.ruby_system.RequestType.ST.miss_latency_hist_seqr::stdev    33.329650                       (Unspecified)
board.cache_hierarchy.ruby_system.RequestType.ST.miss_latency_hist_seqr |     2468223     99.81%     99.81% |        3417      0.14%     99.95% |         426      0.02%     99.97% |          40      0.00%     99.97% |         684      0.03%    100.00% |          17      0.00%    100.00% |           8      0.00%    100.00% |           0      0.00%    100.00% |           0      0.00%    100.00% |           0      0.00%    100.00% (Unspecified)
board.cache_hierarchy.ruby_system.RequestType.ST.miss_latency_hist_seqr::total      2472815                       (Unspecified)
board.cache_hierarchy.ruby_system.RequestType.IFETCH.latency_hist_seqr::bucket_size          256                       (Unspecified)
board.cache_hierarchy.ruby_system.RequestType.IFETCH.latency_hist_seqr::max_bucket         2559                       (Unspecified)
board.cache_hierarchy.ruby_system.RequestType.IFETCH.latency_hist_seqr::samples    302618035                       (Unspecified)
board.cache_hierarchy.ruby_system.RequestType.IFETCH.latency_hist_seqr::mean     1.061225                       (Unspecified)
board.cache_hierarchy.ruby_system.RequestType.IFETCH.latency_hist_seqr::gmean     1.002911                       (Unspecified)
board.cache_hierarchy.ruby_system.RequestType.IFETCH.latency_hist_seqr::stdev     3.691436                       (Unspecified)
board.cache_hierarchy.ruby_system.RequestType.IFETCH.latency_hist_seqr |   302615803    100.00%    100.00% |        1084      0.00%    100.00% |          62      0.00%    100.00% |         174      0.00%    100.00% |         896      0.00%    100.00% |          13      0.00%    100.00% |           3      0.00%    100.00% |           0      0.00%    100.00% |           0      0.00%    100.00% |           0      0.00%    100.00% (Unspecified)
board.cache_hierarchy.ruby_system.RequestType.IFETCH.latency_hist_seqr::total    302618035                       (Unspecified)
board.cache_hierarchy.ruby_system.RequestType.IFETCH.hit_latency_hist_seqr::bucket_size            1                       (Unspecified)
board.cache_hierarchy.ruby_system.RequestType.IFETCH.hit_latency_hist_seqr::max_bucket            9                       (Unspecified)
board.cache_hierarchy.ruby_system.RequestType.IFETCH.hit_latency_hist_seqr::samples    302370019                       (Unspecified)
board.cache_hierarchy.ruby_system.RequestType.IFETCH.hit_latency_hist_seqr::mean            1                       (Unspecified)
board.cache_hierarchy.ruby_system.RequestType.IFETCH.hit_latency_hist_seqr::gmean            1                       (Unspecified)
board.cache_hierarchy.ruby_system.RequestType.IFETCH.hit_latency_hist_seqr |           0      0.00%      0.00% |   302370019    100.00%    100.00% |           0      0.00%    100.00% |           0      0.00%    100.00% |           0      0.00%    100.00% |           0      0.00%    100.00% |           0      0.00%    100.00% |           0      0.00%    100.00% |           0      0.00%    100.00% |           0      0.00%    100.00% (Unspecified)
board.cache_hierarchy.ruby_system.RequestType.IFETCH.hit_latency_hist_seqr::total    302370019                       (Unspecified)
board.cache_hierarchy.ruby_system.RequestType.IFETCH.miss_latency_hist_seqr::bucket_size          256                       (Unspecified)
board.cache_hierarchy.ruby_system.RequestType.IFETCH.miss_latency_hist_seqr::max_bucket         2559                       (Unspecified)
board.cache_hierarchy.ruby_system.RequestType.IFETCH.miss_latency_hist_seqr::samples       248016                       (Unspecified)
board.cache_hierarchy.ruby_system.RequestType.IFETCH.miss_latency_hist_seqr::mean    75.703789                       (Unspecified)
board.cache_hierarchy.ruby_system.RequestType.IFETCH.miss_latency_hist_seqr::gmean    34.679474                       (Unspecified)
board.cache_hierarchy.ruby_system.RequestType.IFETCH.miss_latency_hist_seqr::stdev   105.122099                       (Unspecified)
board.cache_hierarchy.ruby_system.RequestType.IFETCH.miss_latency_hist_seqr |      245784     99.10%     99.10% |        1084      0.44%     99.54% |          62      0.02%     99.56% |         174      0.07%     99.63% |         896      0.36%     99.99% |          13      0.01%    100.00% |           3      0.00%    100.00% |           0      0.00%    100.00% |           0      0.00%    100.00% |           0      0.00%    100.00% (Unspecified)
board.cache_hierarchy.ruby_system.RequestType.IFETCH.miss_latency_hist_seqr::total       248016                       (Unspecified)
board.cache_hierarchy.ruby_system.RequestType.RMW_Read.latency_hist_seqr::bucket_size          256                       (Unspecified)
board.cache_hierarchy.ruby_system.RequestType.RMW_Read.latency_hist_seqr::max_bucket         2559                       (Unspecified)
board.cache_hierarchy.ruby_system.RequestType.RMW_Read.latency_hist_seqr::samples        36781                       (Unspecified)
board.cache_hierarchy.ruby_system.RequestType.RMW_Read.latency_hist_seqr::mean    41.181561                       (Unspecified)
board.cache_hierarchy.ruby_system.RequestType.RMW_Read.latency_hist_seqr::gmean     7.575956                       (Unspecified)
board.cache_hierarchy.ruby_system.RequestType.RMW_Read.latency_hist_seqr::stdev    85.915001                       (Unspecified)
board.cache_hierarchy.ruby_system.RequestType.RMW_Read.latency_hist_seqr |       36279     98.64%     98.64% |         435      1.18%     99.82% |          12      0.03%     99.85% |           4      0.01%     99.86% |          45      0.12%     99.98% |           6      0.02%    100.00% |           0      0.00%    100.00% |           0      0.00%    100.00% |           0      0.00%    100.00% |           0      0.00%    100.00% (Unspecified)
board.cache_hierarchy.ruby_system.RequestType.RMW_Read.latency_hist_seqr::total        36781                       (Unspecified)
board.cache_hierarchy.ruby_system.RequestType.RMW_Read.hit_latency_hist_seqr::bucket_size            1                       (Unspecified)
board.cache_hierarchy.ruby_system.RequestType.RMW_Read.hit_latency_hist_seqr::max_bucket            9                       (Unspecified)
board.cache_hierarchy.ruby_system.RequestType.RMW_Read.hit_latency_hist_seqr::samples        15354                       (Unspecified)
board.cache_hierarchy.ruby_system.RequestType.RMW_Read.hit_latency_hist_seqr::mean            1                       (Unspecified)
board.cache_hierarchy.ruby_system.RequestType.RMW_Read.hit_latency_hist_seqr::gmean            1                       (Unspecified)
board.cache_hierarchy.ruby_system.RequestType.RMW_Read.hit_latency_hist_seqr |           0      0.00%      0.00% |       15354    100.00%    100.00% |           0      0.00%    100.00% |           0      0.00%    100.00% |           0      0.00%    100.00% |           0      0.00%    100.00% |           0      0.00%    100.00% |           0      0.00%    100.00% |           0      0.00%    100.00% |           0      0.00%    100.00% (Unspecified)
board.cache_hierarchy.ruby_system.RequestType.RMW_Read.hit_latency_hist_seqr::total        15354                       (Unspecified)
board.cache_hierarchy.ruby_system.RequestType.RMW_Read.miss_latency_hist_seqr::bucket_size          256                       (Unspecified)
board.cache_hierarchy.ruby_system.RequestType.RMW_Read.miss_latency_hist_seqr::max_bucket         2559                       (Unspecified)
board.cache_hierarchy.ruby_system.RequestType.RMW_Read.miss_latency_hist_seqr::samples        21427                       (Unspecified)
board.cache_hierarchy.ruby_system.RequestType.RMW_Read.miss_latency_hist_seqr::mean    69.974565                       (Unspecified)
board.cache_hierarchy.ruby_system.RequestType.RMW_Read.miss_latency_hist_seqr::gmean    32.330930                       (Unspecified)
board.cache_hierarchy.ruby_system.RequestType.RMW_Read.miss_latency_hist_seqr::stdev   103.367578                       (Unspecified)
board.cache_hierarchy.ruby_system.RequestType.RMW_Read.miss_latency_hist_seqr |       20925     97.66%     97.66% |         435      2.03%     99.69% |          12      0.06%     99.74% |           4      0.02%     99.76% |          45      0.21%     99.97% |           6      0.03%    100.00% |           0      0.00%    100.00% |           0      0.00%    100.00% |           0      0.00%    100.00% |           0      0.00%    100.00% (Unspecified)
board.cache_hierarchy.ruby_system.RequestType.RMW_Read.miss_latency_hist_seqr::total        21427                       (Unspecified)
board.cache_hierarchy.ruby_system.RequestType.Locked_RMW_Read.latency_hist_seqr::bucket_size          256                       (Unspecified)
board.cache_hierarchy.ruby_system.RequestType.Locked_RMW_Read.latency_hist_seqr::max_bucket         2559                       (Unspecified)
board.cache_hierarchy.ruby_system.RequestType.Locked_RMW_Read.latency_hist_seqr::samples      1253937                       (Unspecified)
board.cache_hierarchy.ruby_system.RequestType.Locked_RMW_Read.latency_hist_seqr::mean     1.340303                       (Unspecified)
board.cache_hierarchy.ruby_system.RequestType.Locked_RMW_Read.latency_hist_seqr::gmean     1.022453                       (Unspecified)
board.cache_hierarchy.ruby_system.RequestType.Locked_RMW_Read.latency_hist_seqr::stdev     8.171186                       (Unspecified)
board.cache_hierarchy.ruby_system.RequestType.Locked_RMW_Read.latency_hist_seqr |     1253828     99.99%     99.99% |          95      0.01%    100.00% |           2      0.00%    100.00% |           3      0.00%    100.00% |           8      0.00%    100.00% |           1      0.00%    100.00% |           0      0.00%    100.00% |           0      0.00%    100.00% |           0      0.00%    100.00% |           0      0.00%    100.00% (Unspecified)
board.cache_hierarchy.ruby_system.RequestType.Locked_RMW_Read.latency_hist_seqr::total      1253937                       (Unspecified)
board.cache_hierarchy.ruby_system.RequestType.Locked_RMW_Read.hit_latency_hist_seqr::bucket_size            1                       (Unspecified)
board.cache_hierarchy.ruby_system.RequestType.Locked_RMW_Read.hit_latency_hist_seqr::max_bucket            9                       (Unspecified)
board.cache_hierarchy.ruby_system.RequestType.Locked_RMW_Read.hit_latency_hist_seqr::samples      1245127                       (Unspecified)
board.cache_hierarchy.ruby_system.RequestType.Locked_RMW_Read.hit_latency_hist_seqr::mean            1                       (Unspecified)
board.cache_hierarchy.ruby_system.RequestType.Locked_RMW_Read.hit_latency_hist_seqr::gmean            1                       (Unspecified)
board.cache_hierarchy.ruby_system.RequestType.Locked_RMW_Read.hit_latency_hist_seqr |           0      0.00%      0.00% |     1245127    100.00%    100.00% |           0      0.00%    100.00% |           0      0.00%    100.00% |           0      0.00%    100.00% |           0      0.00%    100.00% |           0      0.00%    100.00% |           0      0.00%    100.00% |           0      0.00%    100.00% |           0      0.00%    100.00% (Unspecified)
board.cache_hierarchy.ruby_system.RequestType.Locked_RMW_Read.hit_latency_hist_seqr::total      1245127                       (Unspecified)
board.cache_hierarchy.ruby_system.RequestType.Locked_RMW_Read.miss_latency_hist_seqr::bucket_size          256                       (Unspecified)
board.cache_hierarchy.ruby_system.RequestType.Locked_RMW_Read.miss_latency_hist_seqr::max_bucket         2559                       (Unspecified)
board.cache_hierarchy.ruby_system.RequestType.Locked_RMW_Read.miss_latency_hist_seqr::samples         8810                       (Unspecified)
board.cache_hierarchy.ruby_system.RequestType.Locked_RMW_Read.miss_latency_hist_seqr::mean    49.435755                       (Unspecified)
board.cache_hierarchy.ruby_system.RequestType.Locked_RMW_Read.miss_latency_hist_seqr::gmean    23.578837                       (Unspecified)
board.cache_hierarchy.ruby_system.RequestType.Locked_RMW_Read.miss_latency_hist_seqr::stdev    84.702248                       (Unspecified)
board.cache_hierarchy.ruby_system.RequestType.Locked_RMW_Read.miss_latency_hist_seqr |        8701     98.76%     98.76% |          95      1.08%     99.84% |           2      0.02%     99.86% |           3      0.03%     99.90% |           8      0.09%     99.99% |           1      0.01%    100.00% |           0      0.00%    100.00% |           0      0.00%    100.00% |           0      0.00%    100.00% |           0      0.00%    100.00% (Unspecified)
board.cache_hierarchy.ruby_system.RequestType.Locked_RMW_Read.miss_latency_hist_seqr::total         8810                       (Unspecified)
board.cache_hierarchy.ruby_system.RequestType.Locked_RMW_Write.latency_hist_seqr::bucket_size            1                       (Unspecified)
board.cache_hierarchy.ruby_system.RequestType.Locked_RMW_Write.latency_hist_seqr::max_bucket            9                       (Unspecified)
board.cache_hierarchy.ruby_system.RequestType.Locked_RMW_Write.latency_hist_seqr::samples      1253937                       (Unspecified)
board.cache_hierarchy.ruby_system.RequestType.Locked_RMW_Write.latency_hist_seqr::mean            1                       (Unspecified)
board.cache_hierarchy.ruby_system.RequestType.Locked_RMW_Write.latency_hist_seqr::gmean            1                       (Unspecified)
board.cache_hierarchy.ruby_system.RequestType.Locked_RMW_Write.latency_hist_seqr |           0      0.00%      0.00% |     1253937    100.00%    100.00% |           0      0.00%    100.00% |           0      0.00%    100.00% |           0      0.00%    100.00% |           0      0.00%    100.00% |           0      0.00%    100.00% |           0      0.00%    100.00% |           0      0.00%    100.00% |           0      0.00%    100.00% (Unspecified)
board.cache_hierarchy.ruby_system.RequestType.Locked_RMW_Write.latency_hist_seqr::total      1253937                       (Unspecified)
board.cache_hierarchy.ruby_system.RequestType.Locked_RMW_Write.hit_latency_hist_seqr::bucket_size            1                       (Unspecified)
board.cache_hierarchy.ruby_system.RequestType.Locked_RMW_Write.hit_latency_hist_seqr::max_bucket            9                       (Unspecified)
board.cache_hierarchy.ruby_system.RequestType.Locked_RMW_Write.hit_latency_hist_seqr::samples      1253937                       (Unspecified)
board.cache_hierarchy.ruby_system.RequestType.Locked_RMW_Write.hit_latency_hist_seqr::mean            1                       (Unspecified)
board.cache_hierarchy.ruby_system.RequestType.Locked_RMW_Write.hit_latency_hist_seqr::gmean            1                       (Unspecified)
board.cache_hierarchy.ruby_system.RequestType.Locked_RMW_Write.hit_latency_hist_seqr |           0      0.00%      0.00% |     1253937    100.00%    100.00% |           0      0.00%    100.00% |           0      0.00%    100.00% |           0      0.00%    100.00% |           0      0.00%    100.00% |           0      0.00%    100.00% |           0      0.00%    100.00% |           0      0.00%    100.00% |           0      0.00%    100.00% (Unspecified)
board.cache_hierarchy.ruby_system.RequestType.Locked_RMW_Write.hit_latency_hist_seqr::total      1253937                       (Unspecified)
board.cache_hierarchy.ruby_system.directory_controllers0.power_state.pwrStateResidencyTicks::UNDEFINED 136060620648536                       # Cumulative time (in ticks) in various power states (Tick)
board.cache_hierarchy.ruby_system.directory_controllers0.requestToDir.m_msg_count      2456143                       # Number of messages passed the buffer (Count)
board.cache_hierarchy.ruby_system.directory_controllers0.requestToDir.m_buf_msgs     0.002082                       # Average number of messages in buffer ((Count/Tick))
board.cache_hierarchy.ruby_system.directory_controllers0.requestToMemory.m_msg_count      2792214                       # Number of messages passed the buffer (Count)
board.cache_hierarchy.ruby_system.directory_controllers0.requestToMemory.m_buf_msgs     0.002372                       # Average number of messages in buffer ((Count/Tick))
board.cache_hierarchy.ruby_system.directory_controllers0.requestToMemory.m_stall_time      2040291                       # Total number of ticks messages were stalled in this buffer (Tick)
board.cache_hierarchy.ruby_system.directory_controllers0.requestToMemory.m_avg_stall_time     0.730707                       # Average stall ticks per message ((Tick/Count))
board.cache_hierarchy.ruby_system.directory_controllers0.responseFromDir.m_msg_count      4908188                       # Number of messages passed the buffer (Count)
board.cache_hierarchy.ruby_system.directory_controllers0.responseFromDir.m_buf_msgs     0.004161                       # Average number of messages in buffer ((Count/Tick))
board.cache_hierarchy.ruby_system.directory_controllers0.responseFromMemory.m_msg_count      2792212                       # Number of messages passed the buffer (Count)
board.cache_hierarchy.ruby_system.directory_controllers0.responseFromMemory.m_buf_msgs     0.003788                       # Average number of messages in buffer ((Count/Tick))
board.cache_hierarchy.ruby_system.directory_controllers0.responseToDir.m_msg_count      2452047                       # Number of messages passed the buffer (Count)
board.cache_hierarchy.ruby_system.directory_controllers0.responseToDir.m_buf_msgs     0.002079                       # Average number of messages in buffer ((Count/Tick))
board.cache_hierarchy.ruby_system.directory_controllers1.power_state.pwrStateResidencyTicks::UNDEFINED 136060620648536                       # Cumulative time (in ticks) in various power states (Tick)
board.cache_hierarchy.ruby_system.directory_controllers1.requestToDir.m_msg_count      2457897                       # Number of messages passed the buffer (Count)
board.cache_hierarchy.ruby_system.directory_controllers1.requestToDir.m_buf_msgs     0.002084                       # Average number of messages in buffer ((Count/Tick))
board.cache_hierarchy.ruby_system.directory_controllers1.requestToMemory.m_msg_count      2799094                       # Number of messages passed the buffer (Count)
board.cache_hierarchy.ruby_system.directory_controllers1.requestToMemory.m_buf_msgs     0.002378                       # Average number of messages in buffer ((Count/Tick))
board.cache_hierarchy.ruby_system.directory_controllers1.requestToMemory.m_stall_time      1970361                       # Total number of ticks messages were stalled in this buffer (Tick)
board.cache_hierarchy.ruby_system.directory_controllers1.requestToMemory.m_avg_stall_time     0.703928                       # Average stall ticks per message ((Tick/Count))
board.cache_hierarchy.ruby_system.directory_controllers1.responseFromDir.m_msg_count      4911698                       # Number of messages passed the buffer (Count)
board.cache_hierarchy.ruby_system.directory_controllers1.responseFromDir.m_buf_msgs     0.004164                       # Average number of messages in buffer ((Count/Tick))
board.cache_hierarchy.ruby_system.directory_controllers1.responseFromMemory.m_msg_count      2799094                       # Number of messages passed the buffer (Count)
board.cache_hierarchy.ruby_system.directory_controllers1.responseFromMemory.m_buf_msgs     0.003800                       # Average number of messages in buffer ((Count/Tick))
board.cache_hierarchy.ruby_system.directory_controllers1.responseToDir.m_msg_count      2453801                       # Number of messages passed the buffer (Count)
board.cache_hierarchy.ruby_system.directory_controllers1.responseToDir.m_buf_msgs     0.002080                       # Average number of messages in buffer ((Count/Tick))
board.cache_hierarchy.ruby_system.dma_controllers0.dma_sequencer.power_state.pwrStateResidencyTicks::UNDEFINED 136060620648536                       # Cumulative time (in ticks) in various power states (Tick)
board.cache_hierarchy.ruby_system.dma_controllers0.power_state.pwrStateResidencyTicks::UNDEFINED 136060620648536                       # Cumulative time (in ticks) in various power states (Tick)
board.cache_hierarchy.ruby_system.dma_controllers1.dma_sequencer.power_state.pwrStateResidencyTicks::UNDEFINED 136060620648536                       # Cumulative time (in ticks) in various power states (Tick)
board.cache_hierarchy.ruby_system.dma_controllers1.power_state.pwrStateResidencyTicks::UNDEFINED 136060620648536                       # Cumulative time (in ticks) in various power states (Tick)
board.cache_hierarchy.ruby_system.l1_controllers0.delayHistogram::samples     43313297                       # delay_histogram (Unspecified)
board.cache_hierarchy.ruby_system.l1_controllers0.delayHistogram::mean     0.005371                       # delay_histogram (Unspecified)
board.cache_hierarchy.ruby_system.l1_controllers0.delayHistogram::stdev     0.175303                       # delay_histogram (Unspecified)
board.cache_hierarchy.ruby_system.l1_controllers0.delayHistogram::0-1     43265527     99.89%     99.89% # delay_histogram (Unspecified)
board.cache_hierarchy.ruby_system.l1_controllers0.delayHistogram::2-3        11204      0.03%     99.92% # delay_histogram (Unspecified)
board.cache_hierarchy.ruby_system.l1_controllers0.delayHistogram::4-5        12401      0.03%     99.94% # delay_histogram (Unspecified)
board.cache_hierarchy.ruby_system.l1_controllers0.delayHistogram::6-7        16341      0.04%     99.98% # delay_histogram (Unspecified)
board.cache_hierarchy.ruby_system.l1_controllers0.delayHistogram::8-9         7822      0.02%    100.00% # delay_histogram (Unspecified)
board.cache_hierarchy.ruby_system.l1_controllers0.delayHistogram::10-11            2      0.00%    100.00% # delay_histogram (Unspecified)
board.cache_hierarchy.ruby_system.l1_controllers0.delayHistogram::total     43313297                       # delay_histogram (Unspecified)
board.cache_hierarchy.ruby_system.l1_controllers0.L1Dcache.m_demand_hits      7357921                       # Number of cache demand hits (Unspecified)
board.cache_hierarchy.ruby_system.l1_controllers0.L1Dcache.m_demand_misses     29339791                       # Number of cache demand misses (Unspecified)
board.cache_hierarchy.ruby_system.l1_controllers0.L1Dcache.m_demand_accesses     36697712                       # Number of cache demand accesses (Unspecified)
board.cache_hierarchy.ruby_system.l1_controllers0.L1Icache.m_demand_hits    150300115                       # Number of cache demand hits (Unspecified)
board.cache_hierarchy.ruby_system.l1_controllers0.L1Icache.m_demand_misses       139888                       # Number of cache demand misses (Unspecified)
board.cache_hierarchy.ruby_system.l1_controllers0.L1Icache.m_demand_accesses    150440003                       # Number of cache demand accesses (Unspecified)
board.cache_hierarchy.ruby_system.l1_controllers0.mandatoryQueue.m_msg_count    187137715                       # Number of messages passed the buffer (Count)
board.cache_hierarchy.ruby_system.l1_controllers0.mandatoryQueue.m_buf_msgs     0.161276                       # Average number of messages in buffer ((Count/Tick))
board.cache_hierarchy.ruby_system.l1_controllers0.mandatoryQueue.m_stall_time     10248075                       # Total number of ticks messages were stalled in this buffer (Tick)
board.cache_hierarchy.ruby_system.l1_controllers0.mandatoryQueue.m_stall_count         3950                       # Number of times messages were stalled (Count)
board.cache_hierarchy.ruby_system.l1_controllers0.mandatoryQueue.m_avg_stall_time     0.054762                       # Average stall ticks per message ((Tick/Count))
board.cache_hierarchy.ruby_system.l1_controllers0.power_state.pwrStateResidencyTicks::UNDEFINED 136060620648536                       # Cumulative time (in ticks) in various power states (Tick)
board.cache_hierarchy.ruby_system.l1_controllers0.prefetcher.RubyPrefetcher.numMissObserved            0                       # Number of misses observed (Unspecified)
board.cache_hierarchy.ruby_system.l1_controllers0.prefetcher.RubyPrefetcher.numAllocatedStreams            0                       # Number of streams allocated for prefetching (Unspecified)
board.cache_hierarchy.ruby_system.l1_controllers0.prefetcher.RubyPrefetcher.numPrefetchRequested            0                       # Number of prefetch requests made (Unspecified)
board.cache_hierarchy.ruby_system.l1_controllers0.prefetcher.RubyPrefetcher.numHits            0                       # Number of prefetched blocks accessed (for the first time) (Unspecified)
board.cache_hierarchy.ruby_system.l1_controllers0.prefetcher.RubyPrefetcher.numPartialHits            0                       # Number of misses observed for a block being prefetched (Unspecified)
board.cache_hierarchy.ruby_system.l1_controllers0.prefetcher.RubyPrefetcher.numPagesCrossed            0                       # Number of prefetches across pages (Unspecified)
board.cache_hierarchy.ruby_system.l1_controllers0.prefetcher.RubyPrefetcher.numMissedPrefetchedBlocks            0                       # Number of misses for blocks that were prefetched, yet missed (Unspecified)
board.cache_hierarchy.ruby_system.l1_controllers0.requestFromL1Cache.m_msg_count     43220729                       # Number of messages passed the buffer (Count)
board.cache_hierarchy.ruby_system.l1_controllers0.requestFromL1Cache.m_buf_msgs     0.073284                       # Average number of messages in buffer ((Count/Tick))
board.cache_hierarchy.ruby_system.l1_controllers0.requestToL1Cache.m_msg_count        88093                       # Number of messages passed the buffer (Count)
[...]
board.processor.switch1.core.commitStats0.numIntInsts    189350602                       # Number of integer instructions (Count)
board.processor.switch1.core.commitStats0.numLoadInsts     31558045                       # Number of load instructions (Count)
board.processor.switch1.core.commitStats0.numStoreInsts      2259360                       # Number of store instructions (Count)
board.processor.switch1.core.commitStats0.numVecInsts            0                       # Number of vector instructions (Count)
board.processor.switch1.core.commitStats0.committedInstType::No_OpClass         2503      0.00%      0.00% # Class of committed instruction. (Count)
board.processor.switch1.core.commitStats0.committedInstType::IntAlu    157521001     82.16%     82.16% # Class of committed instruction. (Count)
board.processor.switch1.core.commitStats0.committedInstType::IntMult         8871      0.00%     82.17% # Class of committed instruction. (Count)
board.processor.switch1.core.commitStats0.committedInstType::IntDiv        16828      0.01%     82.17% # Class of committed instruction. (Count)
board.processor.switch1.core.commitStats0.committedInstType::FloatAdd           50      0.00%     82.17% # Class of committed instruction. (Count)
board.processor.switch1.core.commitStats0.committedInstType::FloatCmp            0      0.00%     82.17% # Class of committed instruction. (Count)
board.processor.switch1.core.commitStats0.committedInstType::FloatCvt           48      0.00%     82.17% # Class of committed instruction. (Count)
board.processor.switch1.core.commitStats0.committedInstType::FloatMult            0      0.00%     82.17% # Class of committed instruction. (Count)
board.processor.switch1.core.commitStats0.committedInstType::FloatMultAcc            0      0.00%     82.17% # Class of committed instruction. (Count)
board.processor.switch1.core.commitStats0.committedInstType::FloatDiv            0      0.00%     82.17% # Class of committed instruction. (Count)
board.processor.switch1.core.commitStats0.committedInstType::FloatMisc            0      0.00%     82.17% # Class of committed instruction. (Count)
board.processor.switch1.core.commitStats0.committedInstType::FloatSqrt            0      0.00%     82.17% # Class of committed instruction. (Count)
board.processor.switch1.core.commitStats0.committedInstType::SimdAdd       359842      0.19%     82.36% # Class of committed instruction. (Count)
board.processor.switch1.core.commitStats0.committedInstType::SimdAddAcc            0      0.00%     82.36% # Class of committed instruction. (Count)
board.processor.switch1.core.commitStats0.committedInstType::SimdAlu           80      0.00%     82.36% # Class of committed instruction. (Count)
board.processor.switch1.core.commitStats0.committedInstType::SimdCmp            0      0.00%     82.36% # Class of committed instruction. (Count)
board.processor.switch1.core.commitStats0.committedInstType::SimdCvt          104      0.00%     82.36% # Class of committed instruction. (Count)
board.processor.switch1.core.commitStats0.committedInstType::SimdMisc           54      0.00%     82.36% # Class of committed instruction. (Count)
board.processor.switch1.core.commitStats0.committedInstType::SimdMult            0      0.00%     82.36% # Class of committed instruction. (Count)
board.processor.switch1.core.commitStats0.committedInstType::SimdMultAcc            0      0.00%     82.36% # Class of committed instruction. (Count)
board.processor.switch1.core.commitStats0.committedInstType::SimdMatMultAcc            0      0.00%     82.36% # Class of committed instruction. (Count)
board.processor.switch1.core.commitStats0.committedInstType::SimdShift           52      0.00%     82.36% # Class of committed instruction. (Count)
board.processor.switch1.core.commitStats0.committedInstType::SimdShiftAcc            0      0.00%     82.36% # Class of committed instruction. (Count)
board.processor.switch1.core.commitStats0.committedInstType::SimdDiv            0      0.00%     82.36% # Class of committed instruction. (Count)
board.processor.switch1.core.commitStats0.committedInstType::SimdSqrt            0      0.00%     82.36% # Class of committed instruction. (Count)
board.processor.switch1.core.commitStats0.committedInstType::SimdFloatAdd            0      0.00%     82.36% # Class of committed instruction. (Count)
board.processor.switch1.core.commitStats0.committedInstType::SimdFloatAlu            0      0.00%     82.36% # Class of committed instruction. (Count)
board.processor.switch1.core.commitStats0.committedInstType::SimdFloatCmp            0      0.00%     82.36% # Class of committed instruction. (Count)
board.processor.switch1.core.commitStats0.committedInstType::SimdFloatCvt            0      0.00%     82.36% # Class of committed instruction. (Count)
board.processor.switch1.core.commitStats0.committedInstType::SimdFloatDiv            0      0.00%     82.36% # Class of committed instruction. (Count)
board.processor.switch1.core.commitStats0.committedInstType::SimdFloatMisc            0      0.00%     82.36% # Class of committed instruction. (Count)
board.processor.switch1.core.commitStats0.committedInstType::SimdFloatMult            0      0.00%     82.36% # Class of committed instruction. (Count)
board.processor.switch1.core.commitStats0.committedInstType::SimdFloatMultAcc            0      0.00%     82.36% # Class of committed instruction. (Count)
board.processor.switch1.core.commitStats0.committedInstType::SimdFloatMatMultAcc            0      0.00%     82.36% # Class of committed instruction. (Count)
board.processor.switch1.core.commitStats0.committedInstType::SimdFloatSqrt            0      0.00%     82.36% # Class of committed instruction. (Count)
board.processor.switch1.core.commitStats0.committedInstType::SimdReduceAdd            0      0.00%     82.36% # Class of committed instruction. (Count)
board.processor.switch1.core.commitStats0.committedInstType::SimdReduceAlu            0      0.00%     82.36% # Class of committed instruction. (Count)
board.processor.switch1.core.commitStats0.committedInstType::SimdReduceCmp            0      0.00%     82.36% # Class of committed instruction. (Count)
board.processor.switch1.core.commitStats0.committedInstType::SimdFloatReduceAdd            0      0.00%     82.36% # Class of committed instruction. (Count)
board.processor.switch1.core.commitStats0.committedInstType::SimdFloatReduceCmp            0      0.00%     82.36% # Class of committed instruction. (Count)
board.processor.switch1.core.commitStats0.committedInstType::SimdAes            0      0.00%     82.36% # Class of committed instruction. (Count)
board.processor.switch1.core.commitStats0.committedInstType::SimdAesMix            0      0.00%     82.36% # Class of committed instruction. (Count)
board.processor.switch1.core.commitStats0.committedInstType::SimdSha1Hash            0      0.00%     82.36% # Class of committed instruction. (Count)
board.processor.switch1.core.commitStats0.committedInstType::SimdSha1Hash2            0      0.00%     82.36% # Class of committed instruction. (Count)
board.processor.switch1.core.commitStats0.committedInstType::SimdSha256Hash            0      0.00%     82.36% # Class of committed instruction. (Count)
board.processor.switch1.core.commitStats0.committedInstType::SimdSha256Hash2            0      0.00%     82.36% # Class of committed instruction. (Count)
board.processor.switch1.core.commitStats0.committedInstType::SimdShaSigma2            0      0.00%     82.36% # Class of committed instruction. (Count)
board.processor.switch1.core.commitStats0.committedInstType::SimdShaSigma3            0      0.00%     82.36% # Class of committed instruction. (Count)
board.processor.switch1.core.commitStats0.committedInstType::SimdPredAlu            0      0.00%     82.36% # Class of committed instruction. (Count)
board.processor.switch1.core.commitStats0.committedInstType::Matrix            0      0.00%     82.36% # Class of committed instruction. (Count)
board.processor.switch1.core.commitStats0.committedInstType::MatrixMov            0      0.00%     82.36% # Class of committed instruction. (Count)
board.processor.switch1.core.commitStats0.committedInstType::MatrixOP            0      0.00%     82.36% # Class of committed instruction. (Count)
board.processor.switch1.core.commitStats0.committedInstType::MemRead     31557822     16.46%     98.82% # Class of committed instruction. (Count)
board.processor.switch1.core.commitStats0.committedInstType::MemWrite      1899464      0.99%     99.81% # Class of committed instruction. (Count)
board.processor.switch1.core.commitStats0.committedInstType::FloatMemRead          223      0.00%     99.81% # Class of committed instruction. (Count)
board.processor.switch1.core.commitStats0.committedInstType::FloatMemWrite       359896      0.19%    100.00% # Class of committed instruction. (Count)
board.processor.switch1.core.commitStats0.committedInstType::IprAccess            0      0.00%    100.00% # Class of committed instruction. (Count)
board.processor.switch1.core.commitStats0.committedInstType::InstPrefetch            0      0.00%    100.00% # Class of committed instruction. (Count)
board.processor.switch1.core.commitStats0.committedInstType::SimdUnitStrideLoad            0      0.00%    100.00% # Class of committed instruction. (Count)
board.processor.switch1.core.commitStats0.committedInstType::SimdUnitStrideStore            0      0.00%    100.00% # Class of committed instruction. (Count)
board.processor.switch1.core.commitStats0.committedInstType::SimdUnitStrideMaskLoad            0      0.00%    100.00% # Class of committed instruction. (Count)
board.processor.switch1.core.commitStats0.committedInstType::SimdUnitStrideMaskStore            0      0.00%    100.00% # Class of committed instruction. (Count)
board.processor.switch1.core.commitStats0.committedInstType::SimdStridedLoad            0      0.00%    100.00% # Class of committed instruction. (Count)
board.processor.switch1.core.commitStats0.committedInstType::SimdStridedStore            0      0.00%    100.00% # Class of committed instruction. (Count)
board.processor.switch1.core.commitStats0.committedInstType::SimdIndexedLoad            0      0.00%    100.00% # Class of committed instruction. (Count)
board.processor.switch1.core.commitStats0.committedInstType::SimdIndexedStore            0      0.00%    100.00% # Class of committed instruction. (Count)
board.processor.switch1.core.commitStats0.committedInstType::SimdWholeRegisterLoad            0      0.00%    100.00% # Class of committed instruction. (Count)
board.processor.switch1.core.commitStats0.committedInstType::SimdWholeRegisterStore            0      0.00%    100.00% # Class of committed instruction. (Count)
board.processor.switch1.core.commitStats0.committedInstType::SimdUnitStrideFaultOnlyFirstLoad            0      0.00%    100.00% # Class of committed instruction. (Count)
board.processor.switch1.core.commitStats0.committedInstType::SimdUnitStrideSegmentedLoad            0      0.00%    100.00% # Class of committed instruction. (Count)
board.processor.switch1.core.commitStats0.committedInstType::SimdUnitStrideSegmentedStore            0      0.00%    100.00% # Class of committed instruction. (Count)
board.processor.switch1.core.commitStats0.committedInstType::SimdUnitStrideSegmentedFaultOnlyFirstLoad            0      0.00%    100.00% # Class of committed instruction. (Count)
board.processor.switch1.core.commitStats0.committedInstType::SimdStrideSegmentedLoad            0      0.00%    100.00% # Class of committed instruction. (Count)
board.processor.switch1.core.commitStats0.committedInstType::SimdStrideSegmentedStore            0      0.00%    100.00% # Class of committed instruction. (Count)
board.processor.switch1.core.commitStats0.committedInstType::SimdExt            0      0.00%    100.00% # Class of committed instruction. (Count)
board.processor.switch1.core.commitStats0.committedInstType::SimdFloatExt            0      0.00%    100.00% # Class of committed instruction. (Count)
board.processor.switch1.core.commitStats0.committedInstType::SimdConfig            0      0.00%    100.00% # Class of committed instruction. (Count)
board.processor.switch1.core.commitStats0.committedInstType::total    191726838                       # Class of committed instruction. (Count)
board.processor.switch1.core.commitStats0.committedControl::IsControl     22910948                       # Class of control type instructions committed (Count)
board.processor.switch1.core.commitStats0.committedControl::IsDirectControl     22870471                       # Class of control type instructions committed (Count)
board.processor.switch1.core.commitStats0.committedControl::IsIndirectControl        39649                       # Class of control type instructions committed (Count)
board.processor.switch1.core.commitStats0.committedControl::IsCondControl     19525348                       # Class of control type instructions committed (Count)
board.processor.switch1.core.commitStats0.committedControl::IsUncondControl      3385578                       # Class of control type instructions committed (Count)
board.processor.switch1.core.commitStats0.committedControl::IsCall        39220                       # Class of control type instructions committed (Count)
board.processor.switch1.core.commitStats0.committedControl::IsReturn        39220                       # Class of control type instructions committed (Count)
board.processor.switch1.core.exec_context.thread_0.numMatAluAccesses            0                       # Number of matrix alu accesses (Count)
board.processor.switch1.core.exec_context.thread_0.numCallsReturns        78440                       # Number of times a function call or return occured (Count)
board.processor.switch1.core.exec_context.thread_0.numMatInsts            0                       # Number of matrix instructions (Count)
board.processor.switch1.core.exec_context.thread_0.numIdleCycles            0                       # Number of idle cycles (Cycle)
board.processor.switch1.core.exec_context.thread_0.numBusyCycles   1179536586                       # Number of busy cycles (Cycle)
board.processor.switch1.core.exec_context.thread_0.notIdleFraction            1                       # Percentage of non-idle cycles (Ratio)
board.processor.switch1.core.exec_context.thread_0.idleFraction            0                       # Percentage of idle cycles (Ratio)
board.processor.switch1.core.executeStats0.numInsts            0                       # Number of executed instructions (Count)
board.processor.switch1.core.executeStats0.numNop            0                       # Number of nop insts executed (Count)
board.processor.switch1.core.executeStats0.numBranches            0                       # Number of branches executed (Count)
board.processor.switch1.core.executeStats0.numLoadInsts            0                       # Number of load instructions executed (Count)
board.processor.switch1.core.executeStats0.numStoreInsts     33817405                       # Number of stores executed (Count)
board.processor.switch1.core.executeStats0.instRate            0                       # Inst execution rate ((Count/Cycle))
board.processor.switch1.core.executeStats0.numFpAluAccesses       720366                       # Number of float alu accesses (Count)
board.processor.switch1.core.executeStats0.numFpRegReads      1440138                       # Number of times the floating registers were read (Count)
board.processor.switch1.core.executeStats0.numFpRegWrites       360370                       # Number of times the floating registers were written (Count)
board.processor.switch1.core.executeStats0.numIntAluAccesses    189350602                       # Number of integer alu accesses (Count)
board.processor.switch1.core.executeStats0.numIntRegReads    243698545                       # Number of times the integer registers were read (Count)
board.processor.switch1.core.executeStats0.numIntRegWrites    142169197                       # Number of times the integer registers were written (Count)
board.processor.switch1.core.executeStats0.numMemRefs     33817405                       # Number of memory refs (Count)
board.processor.switch1.core.executeStats0.numMiscRegReads     79645667                       # Number of times the Misc registers were read (Count)
board.processor.switch1.core.executeStats0.numMiscRegWrites        15653                       # Number of times the Misc registers were written (Count)
board.processor.switch1.core.executeStats0.numVecAluAccesses            0                       # Number of vector alu accesses (Count)
board.processor.switch1.core.executeStats0.numDiscardedOps            0                       # Number of ops (including micro ops) which were discarded before commit (Count)
board.processor.switch1.core.fetchStats0.numInsts    121642922                       # Number of instructions fetched (thread level) (Count)
board.processor.switch1.core.fetchStats0.numOps    191726838                       # Number of ops (including micro ops) fetched (thread level) (Count)
board.processor.switch1.core.fetchStats0.fetchRate     0.103128                       # Number of inst fetches per cycle ((Count/Cycle))
board.processor.switch1.core.fetchStats0.numBranches     22910948                       # Number of branches fetched (Count)
board.processor.switch1.core.fetchStats0.branchRate     0.019424                       # Number of branch fetches per cycle (Ratio)
board.processor.switch1.core.fetchStats0.numFetchSuspends            0                       # Number of times Execute suspended instruction fetching (Count)
board.processor.switch1.core.mmu.dtb.rdAccesses     32319604                       # TLB accesses on read requests (Count)
board.processor.switch1.core.mmu.dtb.wrAccesses      2260185                       # TLB accesses on write requests (Count)
board.processor.switch1.core.mmu.dtb.rdMisses       762557                       # TLB misses on read requests (Count)
board.processor.switch1.core.mmu.dtb.wrMisses         1161                       # TLB misses on write requests (Count)
board.processor.switch1.core.mmu.dtb.walker.power_state.pwrStateResidencyTicks::UNDEFINED 136060620648536                       # Cumulative time (in ticks) in various power states (Tick)
board.processor.switch1.core.mmu.itb.rdAccesses            0                       # TLB accesses on read requests (Count)
board.processor.switch1.core.mmu.itb.wrAccesses    152179313                       # TLB accesses on write requests (Count)
board.processor.switch1.core.mmu.itb.rdMisses            0                       # TLB misses on read requests (Count)
board.processor.switch1.core.mmu.itb.wrMisses         1280                       # TLB misses on write requests (Count)
board.processor.switch1.core.mmu.itb.walker.power_state.pwrStateResidencyTicks::UNDEFINED 136060620648536                       # Cumulative time (in ticks) in various power states (Tick)
board.processor.switch1.core.power_state.pwrStateResidencyTicks::OFF 136060620648536                       # Cumulative time (in ticks) in various power states (Tick)
board.processor.switch1.core.thread_0.numInsts            0                       # Number of Instructions committed (Count)
board.processor.switch1.core.thread_0.numOps            0                       # Number of Ops committed (Count)
board.processor.switch1.core.thread_0.numMemRefs            0                       # Number of Memory References (Count)
board.workload.inst.arm                             0                       # number of arm instructions executed (Count)
board.workload.inst.quiesce                         0                       # number of quiesce instructions executed (Count)

---------- End Simulation Statistics   ----------
