
---------- Begin Simulation Statistics ----------
simSeconds                                   0.309229                       # Number of seconds simulated (Second)
simTicks                                 309229081381                       # Number of ticks simulated (Tick)
finalTick                                132151022223140                       # Number of ticks from beginning of simulation (restored from checkpoints and never reset) (Tick)
simFreq                                  1000000000000                       # The number of ticks per simulated second ((Tick/Second))
hostSeconds                                   1348.56                       # Real time elapsed on the host (Second)
hostTickRate                                229302515                       # The number of ticks simulated per host second (ticks/s) ((Tick/Second))
hostMemory                                    4009936                       # Number of bytes of host memory used (Byte)
simInsts                                    240130349                       # Number of instructions simulated (Count)
simOps                                      377693232                       # Number of ops (including micro ops) simulated (Count)
hostInstRate                                   178063                       # Simulator instruction rate (inst/s) ((Count/Second))
hostOpRate                                     280070                       # Simulator op (including micro ops) rate (op/s) ((Count/Second))
board.cache_hierarchy.ruby_system.delayHistogram::bucket_size           32                       # delay histogram for all message (Unspecified)
board.cache_hierarchy.ruby_system.delayHistogram::max_bucket          319                       # delay histogram for all message (Unspecified)
board.cache_hierarchy.ruby_system.delayHistogram::samples     73272672                       # delay histogram for all message (Unspecified)
board.cache_hierarchy.ruby_system.delayHistogram::mean     0.071524                       # delay histogram for all message (Unspecified)
board.cache_hierarchy.ruby_system.delayHistogram::stdev     0.759807                       # delay histogram for all message (Unspecified)
board.cache_hierarchy.ruby_system.delayHistogram |    73272653    100.00%    100.00% |          16      0.00%    100.00% |           0      0.00%    100.00% |           0      0.00%    100.00% |           2      0.00%    100.00% |           0      0.00%    100.00% |           1      0.00%    100.00% |           0      0.00%    100.00% |           0      0.00%    100.00% |           0      0.00%    100.00% # delay histogram for all message (Unspecified)
board.cache_hierarchy.ruby_system.delayHistogram::total     73272672                       # delay histogram for all message (Unspecified)
board.cache_hierarchy.ruby_system.m_outstandReqHistSeqr::bucket_size            1                       (Unspecified)
board.cache_hierarchy.ruby_system.m_outstandReqHistSeqr::max_bucket            9                       (Unspecified)
board.cache_hierarchy.ruby_system.m_outstandReqHistSeqr::samples    373715944                       (Unspecified)
board.cache_hierarchy.ruby_system.m_outstandReqHistSeqr::mean     1.000000                       (Unspecified)
board.cache_hierarchy.ruby_system.m_outstandReqHistSeqr::gmean     1.000000                       (Unspecified)
board.cache_hierarchy.ruby_system.m_outstandReqHistSeqr::stdev     0.000310                       (Unspecified)
board.cache_hierarchy.ruby_system.m_outstandReqHistSeqr |           0      0.00%      0.00% |   373715908    100.00%    100.00% |          36      0.00%    100.00% |           0      0.00%    100.00% |           0      0.00%    100.00% |           0      0.00%    100.00% |           0      0.00%    100.00% |           0      0.00%    100.00% |           0      0.00%    100.00% |           0      0.00%    100.00% (Unspecified)
board.cache_hierarchy.ruby_system.m_outstandReqHistSeqr::total    373715944                       (Unspecified)
board.cache_hierarchy.ruby_system.m_latencyHistSeqr::bucket_size          256                       (Unspecified)
board.cache_hierarchy.ruby_system.m_latencyHistSeqr::max_bucket         2559                       (Unspecified)
board.cache_hierarchy.ruby_system.m_latencyHistSeqr::samples    373715942                       (Unspecified)
board.cache_hierarchy.ruby_system.m_latencyHistSeqr::mean     3.962958                       (Unspecified)
board.cache_hierarchy.ruby_system.m_latencyHistSeqr::gmean     1.177872                       (Unspecified)
board.cache_hierarchy.ruby_system.m_latencyHistSeqr::stdev    25.887548                       (Unspecified)
board.cache_hierarchy.ruby_system.m_latencyHistSeqr |   373572635     99.96%     99.96% |       63693      0.02%     99.98% |        5838      0.00%     99.98% |       19492      0.01%     99.99% |       52934      0.01%    100.00% |        1220      0.00%    100.00% |         129      0.00%    100.00% |           1      0.00%    100.00% |           0      0.00%    100.00% |           0      0.00%    100.00% (Unspecified)
board.cache_hierarchy.ruby_system.m_latencyHistSeqr::total    373715942                       (Unspecified)
board.cache_hierarchy.ruby_system.m_hitLatencyHistSeqr::bucket_size            1                       (Unspecified)
board.cache_hierarchy.ruby_system.m_hitLatencyHistSeqr::max_bucket            9                       (Unspecified)
board.cache_hierarchy.ruby_system.m_hitLatencyHistSeqr::samples    354932864                       (Unspecified)
board.cache_hierarchy.ruby_system.m_hitLatencyHistSeqr::mean            1                       (Unspecified)
board.cache_hierarchy.ruby_system.m_hitLatencyHistSeqr::gmean            1                       (Unspecified)
board.cache_hierarchy.ruby_system.m_hitLatencyHistSeqr |           0      0.00%      0.00% |   354932864    100.00%    100.00% |           0      0.00%    100.00% |           0      0.00%    100.00% |           0      0.00%    100.00% |           0      0.00%    100.00% |           0      0.00%    100.00% |           0      0.00%    100.00% |           0      0.00%    100.00% |           0      0.00%    100.00% (Unspecified)
board.cache_hierarchy.ruby_system.m_hitLatencyHistSeqr::total    354932864                       (Unspecified)
board.cache_hierarchy.ruby_system.m_missLatencyHistSeqr::bucket_size          256                       (Unspecified)
board.cache_hierarchy.ruby_system.m_missLatencyHistSeqr::max_bucket         2559                       (Unspecified)
board.cache_hierarchy.ruby_system.m_missLatencyHistSeqr::samples     18783078                       (Unspecified)
board.cache_hierarchy.ruby_system.m_missLatencyHistSeqr::mean    59.952252                       (Unspecified)
board.cache_hierarchy.ruby_system.m_missLatencyHistSeqr::gmean    25.977610                       (Unspecified)
board.cache_hierarchy.ruby_system.m_missLatencyHistSeqr::stdev   100.165812                       (Unspecified)
board.cache_hierarchy.ruby_system.m_missLatencyHistSeqr |    18639771     99.24%     99.24% |       63693      0.34%     99.58% |        5838      0.03%     99.61% |       19492      0.10%     99.71% |       52934      0.28%     99.99% |        1220      0.01%    100.00% |         129      0.00%    100.00% |           1      0.00%    100.00% |           0      0.00%    100.00% |           0      0.00%    100.00% (Unspecified)
board.cache_hierarchy.ruby_system.m_missLatencyHistSeqr::total     18783078                       (Unspecified)
board.cache_hierarchy.ruby_system.delayVCHist.vnet_0::bucket_size           32                       # delay histogram for vnet_0 (Unspecified)
board.cache_hierarchy.ruby_system.delayVCHist.vnet_0::max_bucket          319                       # delay histogram for vnet_0 (Unspecified)
board.cache_hierarchy.ruby_system.delayVCHist.vnet_0::samples     35864177                       # delay histogram for vnet_0 (Unspecified)
board.cache_hierarchy.ruby_system.delayVCHist.vnet_0::mean     0.140624                       # delay histogram for vnet_0 (Unspecified)
board.cache_hierarchy.ruby_system.delayVCHist.vnet_0::stdev     1.068139                       # delay histogram for vnet_0 (Unspecified)
board.cache_hierarchy.ruby_system.delayVCHist.vnet_0 |    35864158    100.00%    100.00% |          16      0.00%    100.00% |           0      0.00%    100.00% |           0      0.00%    100.00% |           2      0.00%    100.00% |           0      0.00%    100.00% |           1      0.00%    100.00% |           0      0.00%    100.00% |           0      0.00%    100.00% |           0      0.00%    100.00% # delay histogram for vnet_0 (Unspecified)
board.cache_hierarchy.ruby_system.delayVCHist.vnet_0::total     35864177                       # delay histogram for vnet_0 (Unspecified)
board.cache_hierarchy.ruby_system.delayVCHist.vnet_1::bucket_size            2                       # delay histogram for vnet_1 (Unspecified)
board.cache_hierarchy.ruby_system.delayVCHist.vnet_1::max_bucket           19                       # delay histogram for vnet_1 (Unspecified)
board.cache_hierarchy.ruby_system.delayVCHist.vnet_1::samples     37250191                       # delay histogram for vnet_1 (Unspecified)
board.cache_hierarchy.ruby_system.delayVCHist.vnet_1::mean     0.005297                       # delay histogram for vnet_1 (Unspecified)
board.cache_hierarchy.ruby_system.delayVCHist.vnet_1::stdev     0.167661                       # delay histogram for vnet_1 (Unspecified)
board.cache_hierarchy.ruby_system.delayVCHist.vnet_1 |    37205325     99.88%     99.88% |       14095      0.04%     99.92% |       12661      0.03%     99.95% |       13211      0.04%     99.99% |        4897      0.01%    100.00% |           2      0.00%    100.00% |           0      0.00%    100.00% |           0      0.00%    100.00% |           0      0.00%    100.00% |           0      0.00%    100.00% # delay histogram for vnet_1 (Unspecified)
board.cache_hierarchy.ruby_system.delayVCHist.vnet_1::total     37250191                       # delay histogram for vnet_1 (Unspecified)
board.cache_hierarchy.ruby_system.delayVCHist.vnet_2::bucket_size            1                       # delay histogram for vnet_2 (Unspecified)
board.cache_hierarchy.ruby_system.delayVCHist.vnet_2::max_bucket            9                       # delay histogram for vnet_2 (Unspecified)
board.cache_hierarchy.ruby_system.delayVCHist.vnet_2::samples       158304                       # delay histogram for vnet_2 (Unspecified)
board.cache_hierarchy.ruby_system.delayVCHist.vnet_2::mean     0.000430                       # delay histogram for vnet_2 (Unspecified)
board.cache_hierarchy.ruby_system.delayVCHist.vnet_2::stdev     0.029307                       # delay histogram for vnet_2 (Unspecified)
board.cache_hierarchy.ruby_system.delayVCHist.vnet_2 |      158270     99.98%     99.98% |           0      0.00%     99.98% |          34      0.02%    100.00% |           0      0.00%    100.00% |           0      0.00%    100.00% |           0      0.00%    100.00% |           0      0.00%    100.00% |           0      0.00%    100.00% |           0      0.00%    100.00% |           0      0.00%    100.00% # delay histogram for vnet_2 (Unspecified)
board.cache_hierarchy.ruby_system.delayVCHist.vnet_2::total       158304                       # delay histogram for vnet_2 (Unspecified)
board.cache_hierarchy.ruby_system.Directory_Controller.Fetch |     2445190     49.97%     49.97% |     2448183     50.03%    100.00% (Unspecified)
board.cache_hierarchy.ruby_system.Directory_Controller.Fetch::total      4893373                       (Unspecified)
board.cache_hierarchy.ruby_system.Directory_Controller.Data |      327254     49.55%     49.55% |      333189     50.45%    100.00% (Unspecified)
board.cache_hierarchy.ruby_system.Directory_Controller.Data::total       660443                       (Unspecified)
board.cache_hierarchy.ruby_system.Directory_Controller.Memory_Data |     2445190     49.97%     49.97% |     2448182     50.03%    100.00% (Unspecified)
board.cache_hierarchy.ruby_system.Directory_Controller.Memory_Data::total      4893372                       (Unspecified)
board.cache_hierarchy.ruby_system.Directory_Controller.Memory_Ack |      327254     49.55%     49.55% |      333189     50.45%    100.00% (Unspecified)
board.cache_hierarchy.ruby_system.Directory_Controller.Memory_Ack::total       660443                       (Unspecified)
board.cache_hierarchy.ruby_system.Directory_Controller.CleanReplacement |     2113840     50.03%     50.03% |     2110898     49.97%    100.00% (Unspecified)
board.cache_hierarchy.ruby_system.Directory_Controller.CleanReplacement::total      4224738                       (Unspecified)
board.cache_hierarchy.ruby_system.Directory_Controller.I.Fetch |     2445190     49.97%     49.97% |     2448183     50.03%    100.00% (Unspecified)
board.cache_hierarchy.ruby_system.Directory_Controller.I.Fetch::total      4893373                       (Unspecified)
board.cache_hierarchy.ruby_system.Directory_Controller.M.Data |      327254     49.55%     49.55% |      333189     50.45%    100.00% (Unspecified)
board.cache_hierarchy.ruby_system.Directory_Controller.M.Data::total       660443                       (Unspecified)
board.cache_hierarchy.ruby_system.Directory_Controller.M.CleanReplacement |     2113840     50.03%     50.03% |     2110898     49.97%    100.00% (Unspecified)
board.cache_hierarchy.ruby_system.Directory_Controller.M.CleanReplacement::total      4224738                       (Unspecified)
board.cache_hierarchy.ruby_system.Directory_Controller.IM.Memory_Data |     2445190     49.97%     49.97% |     2448182     50.03%    100.00% (Unspecified)
board.cache_hierarchy.ruby_system.Directory_Controller.IM.Memory_Data::total      4893372                       (Unspecified)
board.cache_hierarchy.ruby_system.Directory_Controller.MI.Memory_Ack |      327254     49.55%     49.55% |      333189     50.45%    100.00% (Unspecified)
board.cache_hierarchy.ruby_system.Directory_Controller.MI.Memory_Ack::total       660443                       (Unspecified)
board.cache_hierarchy.ruby_system.L1Cache_Controller.Load |    33915177     50.17%     50.17% |    33683623     49.83%    100.00% (Unspecified)
board.cache_hierarchy.ruby_system.L1Cache_Controller.Load::total     67598800                       (Unspecified)
board.cache_hierarchy.ruby_system.L1Cache_Controller.Ifetch |   151011543     50.23%     50.23% |   149639577     49.77%    100.00% (Unspecified)
board.cache_hierarchy.ruby_system.L1Cache_Controller.Ifetch::total    300651120                       (Unspecified)
board.cache_hierarchy.ruby_system.L1Cache_Controller.Store |     2614991     47.84%     47.84% |     2851033     52.16%    100.00% (Unspecified)
board.cache_hierarchy.ruby_system.L1Cache_Controller.Store::total      5466024                       (Unspecified)
board.cache_hierarchy.ruby_system.L1Cache_Controller.Inv |       77615     52.40%     52.40% |       70512     47.60%    100.00% (Unspecified)
board.cache_hierarchy.ruby_system.L1Cache_Controller.Inv::total       148127                       (Unspecified)
board.cache_hierarchy.ruby_system.L1Cache_Controller.L1_Replacement |     9338789     49.74%     49.74% |     9437340     50.26%    100.00% (Unspecified)
board.cache_hierarchy.ruby_system.L1Cache_Controller.L1_Replacement::total     18776129                       (Unspecified)
board.cache_hierarchy.ruby_system.L1Cache_Controller.Fwd_GETX |           9      3.36%      3.36% |         259     96.64%    100.00% (Unspecified)
board.cache_hierarchy.ruby_system.L1Cache_Controller.Fwd_GETX::total          268                       (Unspecified)
board.cache_hierarchy.ruby_system.L1Cache_Controller.Fwd_GETS |        6595     66.56%     66.56% |        3314     33.44%    100.00% (Unspecified)
board.cache_hierarchy.ruby_system.L1Cache_Controller.Fwd_GETS::total         9909                       (Unspecified)
board.cache_hierarchy.ruby_system.L1Cache_Controller.Data |         153     90.00%     90.00% |          17     10.00%    100.00% (Unspecified)
board.cache_hierarchy.ruby_system.L1Cache_Controller.Data::total          170                       (Unspecified)
board.cache_hierarchy.ruby_system.L1Cache_Controller.Data_Exclusive |     4204093     49.80%     49.80% |     4238177     50.20%    100.00% (Unspecified)
board.cache_hierarchy.ruby_system.L1Cache_Controller.Data_Exclusive::total      8442270                       (Unspecified)
board.cache_hierarchy.ruby_system.L1Cache_Controller.DataS_fromL1 |        3314     33.44%     33.44% |        6595     66.56%    100.00% (Unspecified)
board.cache_hierarchy.ruby_system.L1Cache_Controller.DataS_fromL1::total         9909                       (Unspecified)
board.cache_hierarchy.ruby_system.L1Cache_Controller.Data_all_Acks |     5132883     49.69%     49.69% |     5195934     50.31%    100.00% (Unspecified)
board.cache_hierarchy.ruby_system.L1Cache_Controller.Data_all_Acks::total     10328817                       (Unspecified)
board.cache_hierarchy.ruby_system.L1Cache_Controller.Ack |        1739     90.95%     90.95% |         173      9.05%    100.00% (Unspecified)
board.cache_hierarchy.ruby_system.L1Cache_Controller.Ack::total         1912                       (Unspecified)
board.cache_hierarchy.ruby_system.L1Cache_Controller.Ack_all |        1892     90.87%     90.87% |         190      9.13%    100.00% (Unspecified)
board.cache_hierarchy.ruby_system.L1Cache_Controller.Ack_all::total         2082                       (Unspecified)
board.cache_hierarchy.ruby_system.L1Cache_Controller.WB_Ack |     4231593     49.61%     49.61% |     4298931     50.39%    100.00% (Unspecified)
board.cache_hierarchy.ruby_system.L1Cache_Controller.WB_Ack::total      8530524                       (Unspecified)
board.cache_hierarchy.ruby_system.L1Cache_Controller.NP.Load |     9221671     49.91%     49.91% |     9253280     50.09%    100.00% (Unspecified)
board.cache_hierarchy.ruby_system.L1Cache_Controller.NP.Load::total     18474951                       (Unspecified)
board.cache_hierarchy.ruby_system.L1Cache_Controller.NP.Ifetch |       84775     41.41%     41.41% |      119954     58.59%    100.00% (Unspecified)
board.cache_hierarchy.ruby_system.L1Cache_Controller.NP.Ifetch::total       204729                       (Unspecified)
board.cache_hierarchy.ruby_system.L1Cache_Controller.NP.Store |       32359     33.54%     33.54% |       64122     66.46%    100.00% (Unspecified)
board.cache_hierarchy.ruby_system.L1Cache_Controller.NP.Store::total        96481                       (Unspecified)
board.cache_hierarchy.ruby_system.L1Cache_Controller.NP.Inv |       74746     53.04%     53.04% |       66186     46.96%    100.00% (Unspecified)
board.cache_hierarchy.ruby_system.L1Cache_Controller.NP.Inv::total       140932                       (Unspecified)
board.cache_hierarchy.ruby_system.L1Cache_Controller.I.Load |           6      0.34%      0.34% |        1768     99.66%    100.00% (Unspecified)
board.cache_hierarchy.ruby_system.L1Cache_Controller.I.Load::total         1774                       (Unspecified)
board.cache_hierarchy.ruby_system.L1Cache_Controller.I.Ifetch |        1633     50.54%     50.54% |        1598     49.46%    100.00% (Unspecified)
board.cache_hierarchy.ruby_system.L1Cache_Controller.I.Ifetch::total         3231                       (Unspecified)
board.cache_hierarchy.ruby_system.L1Cache_Controller.I.Store |           0      0.00%      0.00% |           1    100.00%    100.00% (Unspecified)
board.cache_hierarchy.ruby_system.L1Cache_Controller.I.Store::total            1                       (Unspecified)
board.cache_hierarchy.ruby_system.L1Cache_Controller.I.L1_Replacement |        1239     50.45%     50.45% |        1217     49.55%    100.00% (Unspecified)
board.cache_hierarchy.ruby_system.L1Cache_Controller.I.L1_Replacement::total         2456                       (Unspecified)
board.cache_hierarchy.ruby_system.L1Cache_Controller.S.Load |    11056261     49.92%     49.92% |    11090815     50.08%    100.00% (Unspecified)
board.cache_hierarchy.ruby_system.L1Cache_Controller.S.Load::total     22147076                       (Unspecified)
board.cache_hierarchy.ruby_system.L1Cache_Controller.S.Ifetch |   150925135     50.23%     50.23% |   149518025     49.77%    100.00% (Unspecified)
board.cache_hierarchy.ruby_system.L1Cache_Controller.S.Ifetch::total    300443160                       (Unspecified)
board.cache_hierarchy.ruby_system.L1Cache_Controller.S.Store |        1739     90.90%     90.90% |         174      9.10%    100.00% (Unspecified)
board.cache_hierarchy.ruby_system.L1Cache_Controller.S.Store::total         1913                       (Unspecified)
board.cache_hierarchy.ruby_system.L1Cache_Controller.S.Inv |        2859     39.80%     39.80% |        4325     60.20%    100.00% (Unspecified)
board.cache_hierarchy.ruby_system.L1Cache_Controller.S.Inv::total         7184                       (Unspecified)
board.cache_hierarchy.ruby_system.L1Cache_Controller.S.L1_Replacement |     5105956     49.85%     49.85% |     5137192     50.15%    100.00% (Unspecified)
board.cache_hierarchy.ruby_system.L1Cache_Controller.S.L1_Replacement::total     10243148                       (Unspecified)
board.cache_hierarchy.ruby_system.L1Cache_Controller.E.Load |     9965187     50.72%     50.72% |     9682218     49.28%    100.00% (Unspecified)
board.cache_hierarchy.ruby_system.L1Cache_Controller.E.Load::total     19647405                       (Unspecified)
board.cache_hierarchy.ruby_system.L1Cache_Controller.E.Store |      379351     49.47%     49.47% |      387491     50.53%    100.00% (Unspecified)
board.cache_hierarchy.ruby_system.L1Cache_Controller.E.Store::total       766842                       (Unspecified)
board.cache_hierarchy.ruby_system.L1Cache_Controller.E.Inv |           9    100.00%    100.00% |           0      0.00%    100.00% (Unspecified)
board.cache_hierarchy.ruby_system.L1Cache_Controller.E.Inv::total            9                       (Unspecified)
board.cache_hierarchy.ruby_system.L1Cache_Controller.E.L1_Replacement |     3820043     49.82%     49.82% |     3847191     50.18%    100.00% (Unspecified)
board.cache_hierarchy.ruby_system.L1Cache_Controller.E.L1_Replacement::total      7667234                       (Unspecified)
board.cache_hierarchy.ruby_system.L1Cache_Controller.E.Fwd_GETX |           0      0.00%      0.00% |         249    100.00%    100.00% (Unspecified)
board.cache_hierarchy.ruby_system.L1Cache_Controller.E.Fwd_GETX::total          249                       (Unspecified)
board.cache_hierarchy.ruby_system.L1Cache_Controller.E.Fwd_GETS |        4690     59.10%     59.10% |        3246     40.90%    100.00% (Unspecified)
board.cache_hierarchy.ruby_system.L1Cache_Controller.E.Fwd_GETS::total         7936                       (Unspecified)
board.cache_hierarchy.ruby_system.L1Cache_Controller.M.Load |     3672052     50.11%     50.11% |     3655542     49.89%    100.00% (Unspecified)
board.cache_hierarchy.ruby_system.L1Cache_Controller.M.Load::total      7327594                       (Unspecified)
board.cache_hierarchy.ruby_system.L1Cache_Controller.M.Store |     2201542     47.85%     47.85% |     2399245     52.15%    100.00% (Unspecified)
board.cache_hierarchy.ruby_system.L1Cache_Controller.M.Store::total      4600787                       (Unspecified)
board.cache_hierarchy.ruby_system.L1Cache_Controller.M.Inv |           1    100.00%    100.00% |           0      0.00%    100.00% (Unspecified)
board.cache_hierarchy.ruby_system.L1Cache_Controller.M.Inv::total            1                       (Unspecified)
board.cache_hierarchy.ruby_system.L1Cache_Controller.M.L1_Replacement |      411551     47.67%     47.67% |      451740     52.33%    100.00% (Unspecified)
board.cache_hierarchy.ruby_system.L1Cache_Controller.M.L1_Replacement::total       863291                       (Unspecified)
board.cache_hierarchy.ruby_system.L1Cache_Controller.M.Fwd_GETX |           9     47.37%     47.37% |          10     52.63%    100.00% (Unspecified)
board.cache_hierarchy.ruby_system.L1Cache_Controller.M.Fwd_GETX::total           19                       (Unspecified)
board.cache_hierarchy.ruby_system.L1Cache_Controller.M.Fwd_GETS |        1880     98.43%     98.43% |          30      1.57%    100.00% (Unspecified)
board.cache_hierarchy.ruby_system.L1Cache_Controller.M.Fwd_GETS::total         1910                       (Unspecified)
board.cache_hierarchy.ruby_system.L1Cache_Controller.IS.Data_Exclusive |     4204093     49.80%     49.80% |     4238177     50.20%    100.00% (Unspecified)
board.cache_hierarchy.ruby_system.L1Cache_Controller.IS.Data_Exclusive::total      8442270                       (Unspecified)
board.cache_hierarchy.ruby_system.L1Cache_Controller.IS.DataS_fromL1 |        3314     33.44%     33.44% |        6595     66.56%    100.00% (Unspecified)
board.cache_hierarchy.ruby_system.L1Cache_Controller.IS.DataS_fromL1::total         9909                       (Unspecified)
board.cache_hierarchy.ruby_system.L1Cache_Controller.IS.Data_all_Acks |     5100678     49.85%     49.85% |     5131828     50.15%    100.00% (Unspecified)
board.cache_hierarchy.ruby_system.L1Cache_Controller.IS.Data_all_Acks::total     10232506                       (Unspecified)
board.cache_hierarchy.ruby_system.L1Cache_Controller.IM.Data |         153     90.00%     90.00% |          17     10.00%    100.00% (Unspecified)
board.cache_hierarchy.ruby_system.L1Cache_Controller.IM.Data::total          170                       (Unspecified)
board.cache_hierarchy.ruby_system.L1Cache_Controller.IM.Data_all_Acks |       32205     33.44%     33.44% |       64106     66.56%    100.00% (Unspecified)
board.cache_hierarchy.ruby_system.L1Cache_Controller.IM.Data_all_Acks::total        96311                       (Unspecified)
board.cache_hierarchy.ruby_system.L1Cache_Controller.SM.Inv |           0      0.00%      0.00% |           1    100.00%    100.00% (Unspecified)
board.cache_hierarchy.ruby_system.L1Cache_Controller.SM.Inv::total            1                       (Unspecified)
board.cache_hierarchy.ruby_system.L1Cache_Controller.SM.Ack |        1739     90.95%     90.95% |         173      9.05%    100.00% (Unspecified)
board.cache_hierarchy.ruby_system.L1Cache_Controller.SM.Ack::total         1912                       (Unspecified)
board.cache_hierarchy.ruby_system.L1Cache_Controller.SM.Ack_all |        1892     90.87%     90.87% |         190      9.13%    100.00% (Unspecified)
board.cache_hierarchy.ruby_system.L1Cache_Controller.SM.Ack_all::total         2082                       (Unspecified)
board.cache_hierarchy.ruby_system.L1Cache_Controller.M_I.Fwd_GETS |          25     39.68%     39.68% |          38     60.32%    100.00% (Unspecified)
board.cache_hierarchy.ruby_system.L1Cache_Controller.M_I.Fwd_GETS::total           63                       (Unspecified)
board.cache_hierarchy.ruby_system.L1Cache_Controller.M_I.WB_Ack |     4231568     49.61%     49.61% |     4298893     50.39%    100.00% (Unspecified)
board.cache_hierarchy.ruby_system.L1Cache_Controller.M_I.WB_Ack::total      8530461                       (Unspecified)
board.cache_hierarchy.ruby_system.L1Cache_Controller.SINK_WB_ACK.WB_Ack |          25     39.68%     39.68% |          38     60.32%    100.00% (Unspecified)
board.cache_hierarchy.ruby_system.L1Cache_Controller.SINK_WB_ACK.WB_Ack::total           63                       (Unspecified)
board.cache_hierarchy.ruby_system.L2Cache_Controller.L1_GET_INSTR |      109625     52.65%     52.65% |       98576     47.35%    100.00% (Unspecified)
board.cache_hierarchy.ruby_system.L2Cache_Controller.L1_GET_INSTR::total       208201                       (Unspecified)
board.cache_hierarchy.ruby_system.L2Cache_Controller.L1_GETS |    11423982     61.82%     61.82% |     7056262     38.18%    100.00% (Unspecified)
board.cache_hierarchy.ruby_system.L2Cache_Controller.L1_GETS::total     18480244                       (Unspecified)
board.cache_hierarchy.ruby_system.L2Cache_Controller.L1_GETX |       43974     45.57%     45.57% |       52526     54.43%    100.00% (Unspecified)
board.cache_hierarchy.ruby_system.L2Cache_Controller.L1_GETX::total        96500                       (Unspecified)
board.cache_hierarchy.ruby_system.L2Cache_Controller.L1_UPGRADE |        2851     92.78%     92.78% |         222      7.22%    100.00% (Unspecified)
board.cache_hierarchy.ruby_system.L2Cache_Controller.L1_UPGRADE::total         3073                       (Unspecified)
board.cache_hierarchy.ruby_system.L2Cache_Controller.L1_PUTX |     4234458     49.64%     49.64% |     4296130     50.36%    100.00% (Unspecified)
board.cache_hierarchy.ruby_system.L2Cache_Controller.L1_PUTX::total      8530588                       (Unspecified)
board.cache_hierarchy.ruby_system.L2Cache_Controller.L2_Replacement |      327254     49.55%     49.55% |      333190     50.45%    100.00% (Unspecified)
board.cache_hierarchy.ruby_system.L2Cache_Controller.L2_Replacement::total       660444                       (Unspecified)
board.cache_hierarchy.ruby_system.L2Cache_Controller.L2_Replacement_clean |     2113840     50.03%     50.03% |     2110898     49.97%    100.00% (Unspecified)
board.cache_hierarchy.ruby_system.L2Cache_Controller.L2_Replacement_clean::total      4224738                       (Unspecified)
board.cache_hierarchy.ruby_system.L2Cache_Controller.Mem_Data |     2445190     49.97%     49.97% |     2448182     50.03%    100.00% (Unspecified)
board.cache_hierarchy.ruby_system.L2Cache_Controller.Mem_Data::total      4893372                       (Unspecified)
board.cache_hierarchy.ruby_system.L2Cache_Controller.Mem_Ack |     2441094     49.97%     49.97% |     2444087     50.03%    100.00% (Unspecified)
board.cache_hierarchy.ruby_system.L2Cache_Controller.Mem_Ack::total      4885181                       (Unspecified)
board.cache_hierarchy.ruby_system.L2Cache_Controller.WB_Data |        1864     97.44%     97.44% |          49      2.56%    100.00% (Unspecified)
board.cache_hierarchy.ruby_system.L2Cache_Controller.WB_Data::total         1913                       (Unspecified)
board.cache_hierarchy.ruby_system.L2Cache_Controller.WB_Data_clean |        4760     59.52%     59.52% |        3237     40.48%    100.00% (Unspecified)
board.cache_hierarchy.ruby_system.L2Cache_Controller.WB_Data_clean::total         7997                       (Unspecified)
board.cache_hierarchy.ruby_system.L2Cache_Controller.Ack |       33695     51.42%     51.42% |       31834     48.58%    100.00% (Unspecified)
board.cache_hierarchy.ruby_system.L2Cache_Controller.Ack::total        65529                       (Unspecified)
board.cache_hierarchy.ruby_system.L2Cache_Controller.Ack_all |       40845     50.73%     50.73% |       39670     49.27%    100.00% (Unspecified)
board.cache_hierarchy.ruby_system.L2Cache_Controller.Ack_all::total        80515                       (Unspecified)
board.cache_hierarchy.ruby_system.L2Cache_Controller.Unblock |        6624     66.85%     66.85% |        3285     33.15%    100.00% (Unspecified)
board.cache_hierarchy.ruby_system.L2Cache_Controller.Unblock::total         9909                       (Unspecified)
board.cache_hierarchy.ruby_system.L2Cache_Controller.Exclusive_Unblock |     4241267     49.66%     49.66% |     4299396     50.34%    100.00% (Unspecified)
board.cache_hierarchy.ruby_system.L2Cache_Controller.Exclusive_Unblock::total      8540663                       (Unspecified)
board.cache_hierarchy.ruby_system.L2Cache_Controller.NP.L1_GET_INSTR |       32529     49.12%     49.12% |       33689     50.88%    100.00% (Unspecified)
board.cache_hierarchy.ruby_system.L2Cache_Controller.NP.L1_GET_INSTR::total        66218                       (Unspecified)
board.cache_hierarchy.ruby_system.L2Cache_Controller.NP.L1_GETS |     2381415     50.01%     50.01% |     2380790     49.99%    100.00% (Unspecified)
board.cache_hierarchy.ruby_system.L2Cache_Controller.NP.L1_GETS::total      4762205                       (Unspecified)
board.cache_hierarchy.ruby_system.L2Cache_Controller.NP.L1_GETX |       31246     48.11%     48.11% |       33705     51.89%    100.00% (Unspecified)
board.cache_hierarchy.ruby_system.L2Cache_Controller.NP.L1_GETX::total        64951                       (Unspecified)
board.cache_hierarchy.ruby_system.L2Cache_Controller.SS.L1_GET_INSTR |       62713     55.82%     55.82% |       49630     44.18%    100.00% (Unspecified)
board.cache_hierarchy.ruby_system.L2Cache_Controller.SS.L1_GET_INSTR::total       112343                       (Unspecified)
board.cache_hierarchy.ruby_system.L2Cache_Controller.SS.L1_GETS |     7211453     72.03%     72.03% |     2799685     27.97%    100.00% (Unspecified)
board.cache_hierarchy.ruby_system.L2Cache_Controller.SS.L1_GETS::total     10011138                       (Unspecified)
board.cache_hierarchy.ruby_system.L2Cache_Controller.SS.L1_GETX |         158     92.94%     92.94% |          12      7.06%    100.00% (Unspecified)
board.cache_hierarchy.ruby_system.L2Cache_Controller.SS.L1_GETX::total          170                       (Unspecified)
board.cache_hierarchy.ruby_system.L2Cache_Controller.SS.L1_UPGRADE |        1690     88.39%     88.39% |         222     11.61%    100.00% (Unspecified)
board.cache_hierarchy.ruby_system.L2Cache_Controller.SS.L1_UPGRADE::total         1912                       (Unspecified)
board.cache_hierarchy.ruby_system.L2Cache_Controller.SS.L1_PUTX |          39     61.90%     61.90% |          24     38.10%    100.00% (Unspecified)
board.cache_hierarchy.ruby_system.L2Cache_Controller.SS.L1_PUTX::total           63                       (Unspecified)
board.cache_hierarchy.ruby_system.L2Cache_Controller.SS.L2_Replacement |         708     77.97%     77.97% |         200     22.03%    100.00% (Unspecified)
board.cache_hierarchy.ruby_system.L2Cache_Controller.SS.L2_Replacement::total          908                       (Unspecified)
board.cache_hierarchy.ruby_system.L2Cache_Controller.SS.L2_Replacement_clean |       40132     50.42%     50.42% |       39466     49.58%    100.00% (Unspecified)
board.cache_hierarchy.ruby_system.L2Cache_Controller.SS.L2_Replacement_clean::total        79598                       (Unspecified)
board.cache_hierarchy.ruby_system.L2Cache_Controller.M.L1_GETS |     1817859     49.31%     49.31% |     1868910     50.69%    100.00% (Unspecified)
board.cache_hierarchy.ruby_system.L2Cache_Controller.M.L1_GETS::total      3686769                       (Unspecified)
board.cache_hierarchy.ruby_system.L2Cache_Controller.M.L1_GETX |       12313     39.60%     39.60% |       18781     60.40%    100.00% (Unspecified)
board.cache_hierarchy.ruby_system.L2Cache_Controller.M.L1_GETX::total        31094                       (Unspecified)
board.cache_hierarchy.ruby_system.L2Cache_Controller.M.L2_Replacement |      326546     49.51%     49.51% |      332989     50.49%    100.00% (Unspecified)
board.cache_hierarchy.ruby_system.L2Cache_Controller.M.L2_Replacement::total       659535                       (Unspecified)
board.cache_hierarchy.ruby_system.L2Cache_Controller.M.L2_Replacement_clean |     2073703     50.03%     50.03% |     2071428     49.97%    100.00% (Unspecified)
board.cache_hierarchy.ruby_system.L2Cache_Controller.M.L2_Replacement_clean::total      4145131                       (Unspecified)
board.cache_hierarchy.ruby_system.L2Cache_Controller.MT.L1_GETS |        6624     66.85%     66.85% |        3285     33.15%    100.00% (Unspecified)
board.cache_hierarchy.ruby_system.L2Cache_Controller.MT.L1_GETS::total         9909                       (Unspecified)
board.cache_hierarchy.ruby_system.L2Cache_Controller.MT.L1_GETX |         250     93.28%     93.28% |          18      6.72%    100.00% (Unspecified)
board.cache_hierarchy.ruby_system.L2Cache_Controller.MT.L1_GETX::total          268                       (Unspecified)
board.cache_hierarchy.ruby_system.L2Cache_Controller.MT.L1_PUTX |     4234380     49.64%     49.64% |     4296082     50.36%    100.00% (Unspecified)
board.cache_hierarchy.ruby_system.L2Cache_Controller.MT.L1_PUTX::total      8530462                       (Unspecified)
board.cache_hierarchy.ruby_system.L2Cache_Controller.MT.L2_Replacement |           0      0.00%      0.00% |           1    100.00%    100.00% (Unspecified)
board.cache_hierarchy.ruby_system.L2Cache_Controller.MT.L2_Replacement::total            1                       (Unspecified)
board.cache_hierarchy.ruby_system.L2Cache_Controller.MT.L2_Replacement_clean |           5     55.56%     55.56% |           4     44.44%    100.00% (Unspecified)
board.cache_hierarchy.ruby_system.L2Cache_Controller.MT.L2_Replacement_clean::total            9                       (Unspecified)
board.cache_hierarchy.ruby_system.L2Cache_Controller.M_I.L1_GET_INSTR |         134     55.60%     55.60% |         107     44.40%    100.00% (Unspecified)
board.cache_hierarchy.ruby_system.L2Cache_Controller.M_I.L1_GET_INSTR::total          241                       (Unspecified)
board.cache_hierarchy.ruby_system.L2Cache_Controller.M_I.L1_GETS |          10     66.67%     66.67% |           5     33.33%    100.00% (Unspecified)
board.cache_hierarchy.ruby_system.L2Cache_Controller.M_I.L1_GETS::total           15                       (Unspecified)
board.cache_hierarchy.ruby_system.L2Cache_Controller.M_I.L1_GETX |           7     58.33%     58.33% |           5     41.67%    100.00% (Unspecified)
board.cache_hierarchy.ruby_system.L2Cache_Controller.M_I.L1_GETX::total           12                       (Unspecified)
board.cache_hierarchy.ruby_system.L2Cache_Controller.M_I.Mem_Ack |     2441094     49.97%     49.97% |     2444087     50.03%    100.00% (Unspecified)
board.cache_hierarchy.ruby_system.L2Cache_Controller.M_I.Mem_Ack::total      4885181                       (Unspecified)
board.cache_hierarchy.ruby_system.L2Cache_Controller.MT_I.WB_Data |           0      0.00%      0.00% |           1    100.00%    100.00% (Unspecified)
board.cache_hierarchy.ruby_system.L2Cache_Controller.MT_I.WB_Data::total            1                       (Unspecified)
board.cache_hierarchy.ruby_system.L2Cache_Controller.MCT_I.Ack_all |           5     55.56%     55.56% |           4     44.44%    100.00% (Unspecified)
board.cache_hierarchy.ruby_system.L2Cache_Controller.MCT_I.Ack_all::total            9                       (Unspecified)
board.cache_hierarchy.ruby_system.L2Cache_Controller.I_I.Ack |       32987     51.05%     51.05% |       31634     48.95%    100.00% (Unspecified)
board.cache_hierarchy.ruby_system.L2Cache_Controller.I_I.Ack::total        64621                       (Unspecified)
board.cache_hierarchy.ruby_system.L2Cache_Controller.I_I.Ack_all |       40132     50.42%     50.42% |       39466     49.58%    100.00% (Unspecified)
board.cache_hierarchy.ruby_system.L2Cache_Controller.I_I.Ack_all::total        79598                       (Unspecified)
board.cache_hierarchy.ruby_system.L2Cache_Controller.S_I.Ack |         708     77.97%     77.97% |         200     22.03%    100.00% (Unspecified)
board.cache_hierarchy.ruby_system.L2Cache_Controller.S_I.Ack::total          908                       (Unspecified)
board.cache_hierarchy.ruby_system.L2Cache_Controller.S_I.Ack_all |         708     77.97%     77.97% |         200     22.03%    100.00% (Unspecified)
board.cache_hierarchy.ruby_system.L2Cache_Controller.S_I.Ack_all::total          908                       (Unspecified)
board.cache_hierarchy.ruby_system.L2Cache_Controller.ISS.L1_GETS |        3664     54.65%     54.65% |        3040     45.35%    100.00% (Unspecified)
board.cache_hierarchy.ruby_system.L2Cache_Controller.ISS.L1_GETS::total         6704                       (Unspecified)
board.cache_hierarchy.ruby_system.L2Cache_Controller.ISS.Mem_Data |     2377751     50.00%     50.00% |     2377750     50.00%    100.00% (Unspecified)
board.cache_hierarchy.ruby_system.L2Cache_Controller.ISS.Mem_Data::total      4755501                       (Unspecified)
board.cache_hierarchy.ruby_system.L2Cache_Controller.IS.L1_GET_INSTR |       14249     48.47%     48.47% |       15150     51.53%    100.00% (Unspecified)
board.cache_hierarchy.ruby_system.L2Cache_Controller.IS.L1_GET_INSTR::total        29399                       (Unspecified)
board.cache_hierarchy.ruby_system.L2Cache_Controller.IS.Mem_Data |       36193     49.63%     49.63% |       36729     50.37%    100.00% (Unspecified)
board.cache_hierarchy.ruby_system.L2Cache_Controller.IS.Mem_Data::total        72922                       (Unspecified)
board.cache_hierarchy.ruby_system.L2Cache_Controller.IM.L1_GETX |           0      0.00%      0.00% |           4    100.00%    100.00% (Unspecified)
board.cache_hierarchy.ruby_system.L2Cache_Controller.IM.L1_GETX::total            4                       (Unspecified)
board.cache_hierarchy.ruby_system.L2Cache_Controller.IM.Mem_Data |       31246     48.11%     48.11% |       33703     51.89%    100.00% (Unspecified)
board.cache_hierarchy.ruby_system.L2Cache_Controller.IM.Mem_Data::total        64949                       (Unspecified)
board.cache_hierarchy.ruby_system.L2Cache_Controller.SS_MB.L1_GETS |        1316    100.00%    100.00% |           0      0.00%    100.00% (Unspecified)
board.cache_hierarchy.ruby_system.L2Cache_Controller.SS_MB.L1_GETS::total         1316                       (Unspecified)
board.cache_hierarchy.ruby_system.L2Cache_Controller.SS_MB.L1_UPGRADE |           1    100.00%    100.00% |           0      0.00%    100.00% (Unspecified)
board.cache_hierarchy.ruby_system.L2Cache_Controller.SS_MB.L1_UPGRADE::total            1                       (Unspecified)
board.cache_hierarchy.ruby_system.L2Cache_Controller.SS_MB.Exclusive_Unblock |        1848     88.76%     88.76% |         234     11.24%    100.00% (Unspecified)
board.cache_hierarchy.ruby_system.L2Cache_Controller.SS_MB.Exclusive_Unblock::total         2082                       (Unspecified)
board.cache_hierarchy.ruby_system.L2Cache_Controller.MT_MB.L1_GETS |        1641     75.00%     75.00% |         547     25.00%    100.00% (Unspecified)
board.cache_hierarchy.ruby_system.L2Cache_Controller.MT_MB.L1_GETS::total         2188                       (Unspecified)
board.cache_hierarchy.ruby_system.L2Cache_Controller.MT_MB.L1_GETX |           0      0.00%      0.00% |           1    100.00%    100.00% (Unspecified)
board.cache_hierarchy.ruby_system.L2Cache_Controller.MT_MB.L1_GETX::total            1                       (Unspecified)
board.cache_hierarchy.ruby_system.L2Cache_Controller.MT_MB.Exclusive_Unblock |     4239419     49.65%     49.65% |     4299162     50.35%    100.00% (Unspecified)
board.cache_hierarchy.ruby_system.L2Cache_Controller.MT_MB.Exclusive_Unblock::total      8538581                       (Unspecified)
board.cache_hierarchy.ruby_system.L2Cache_Controller.MT_IIB.L1_PUTX |          39     61.90%     61.90% |          24     38.10%    100.00% (Unspecified)
board.cache_hierarchy.ruby_system.L2Cache_Controller.MT_IIB.L1_PUTX::total           63                       (Unspecified)
board.cache_hierarchy.ruby_system.L2Cache_Controller.MT_IIB.WB_Data |        1864     97.49%     97.49% |          48      2.51%    100.00% (Unspecified)
board.cache_hierarchy.ruby_system.L2Cache_Controller.MT_IIB.WB_Data::total         1912                       (Unspecified)
board.cache_hierarchy.ruby_system.L2Cache_Controller.MT_IIB.WB_Data_clean |        4760     59.52%     59.52% |        3237     40.48%    100.00% (Unspecified)
board.cache_hierarchy.ruby_system.L2Cache_Controller.MT_IIB.WB_Data_clean::total         7997                       (Unspecified)
board.cache_hierarchy.ruby_system.L2Cache_Controller.MT_SB.L1_UPGRADE |        1160    100.00%    100.00% |           0      0.00%    100.00% (Unspecified)
board.cache_hierarchy.ruby_system.L2Cache_Controller.MT_SB.L1_UPGRADE::total         1160                       (Unspecified)
board.cache_hierarchy.ruby_system.L2Cache_Controller.MT_SB.Unblock |        6624     66.85%     66.85% |        3285     33.15%    100.00% (Unspecified)
board.cache_hierarchy.ruby_system.L2Cache_Controller.MT_SB.Unblock::total         9909                       (Unspecified)
board.cache_hierarchy.ruby_system.RequestType.LD.latency_hist_seqr::bucket_size          256                       (Unspecified)
board.cache_hierarchy.ruby_system.RequestType.LD.latency_hist_seqr::max_bucket         2559                       (Unspecified)
board.cache_hierarchy.ruby_system.RequestType.LD.latency_hist_seqr::samples     67598800                       (Unspecified)
board.cache_hierarchy.ruby_system.RequestType.LD.latency_hist_seqr::mean    16.950126                       (Unspecified)
board.cache_hierarchy.ruby_system.RequestType.LD.latency_hist_seqr::gmean     2.429039                       (Unspecified)
board.cache_hierarchy.ruby_system.RequestType.LD.latency_hist_seqr::stdev    58.308988                       (Unspecified)
board.cache_hierarchy.ruby_system.RequestType.LD.latency_hist_seqr |    67461680     99.80%     99.80% |       59376      0.09%     99.88% |        5521      0.01%     99.89% |       19402      0.03%     99.92% |       51531      0.08%    100.00% |        1173      0.00%    100.00% |         116      0.00%    100.00% |           1      0.00%    100.00% |           0      0.00%    100.00% |           0      0.00%    100.00% (Unspecified)
board.cache_hierarchy.ruby_system.RequestType.LD.latency_hist_seqr::total     67598800                       (Unspecified)
board.cache_hierarchy.ruby_system.RequestType.LD.hit_latency_hist_seqr::bucket_size            1                       (Unspecified)
board.cache_hierarchy.ruby_system.RequestType.LD.hit_latency_hist_seqr::max_bucket            9                       (Unspecified)
board.cache_hierarchy.ruby_system.RequestType.LD.hit_latency_hist_seqr::samples     49122075                       (Unspecified)
board.cache_hierarchy.ruby_system.RequestType.LD.hit_latency_hist_seqr::mean            1                       (Unspecified)
board.cache_hierarchy.ruby_system.RequestType.LD.hit_latency_hist_seqr::gmean            1                       (Unspecified)
board.cache_hierarchy.ruby_system.RequestType.LD.hit_latency_hist_seqr |           0      0.00%      0.00% |    49122075    100.00%    100.00% |           0      0.00%    100.00% |           0      0.00%    100.00% |           0      0.00%    100.00% |           0      0.00%    100.00% |           0      0.00%    100.00% |           0      0.00%    100.00% |           0      0.00%    100.00% |           0      0.00%    100.00% (Unspecified)
board.cache_hierarchy.ruby_system.RequestType.LD.hit_latency_hist_seqr::total     49122075                       (Unspecified)
board.cache_hierarchy.ruby_system.RequestType.LD.miss_latency_hist_seqr::bucket_size          256                       (Unspecified)
board.cache_hierarchy.ruby_system.RequestType.LD.miss_latency_hist_seqr::max_bucket         2559                       (Unspecified)
board.cache_hierarchy.ruby_system.RequestType.LD.miss_latency_hist_seqr::samples     18476725                       (Unspecified)
board.cache_hierarchy.ruby_system.RequestType.LD.miss_latency_hist_seqr::mean    59.355003                       (Unspecified)
board.cache_hierarchy.ruby_system.RequestType.LD.miss_latency_hist_seqr::gmean    25.712675                       (Unspecified)
board.cache_hierarchy.ruby_system.RequestType.LD.miss_latency_hist_seqr::stdev    99.822093                       (Unspecified)
board.cache_hierarchy.ruby_system.RequestType.LD.miss_latency_hist_seqr |    18339605     99.26%     99.26% |       59376      0.32%     99.58% |        5521      0.03%     99.61% |       19402      0.11%     99.71% |       51531      0.28%     99.99% |        1173      0.01%    100.00% |         116      0.00%    100.00% |           1      0.00%    100.00% |           0      0.00%    100.00% |           0      0.00%    100.00% (Unspecified)
board.cache_hierarchy.ruby_system.RequestType.LD.miss_latency_hist_seqr::total     18476725                       (Unspecified)
board.cache_hierarchy.ruby_system.RequestType.ST.latency_hist_seqr::bucket_size          256                       (Unspecified)
board.cache_hierarchy.ruby_system.RequestType.ST.latency_hist_seqr::max_bucket         2559                       (Unspecified)
board.cache_hierarchy.ruby_system.RequestType.ST.latency_hist_seqr::samples      2930349                       (Unspecified)
board.cache_hierarchy.ruby_system.RequestType.ST.latency_hist_seqr::mean     4.235097                       (Unspecified)
board.cache_hierarchy.ruby_system.RequestType.ST.latency_hist_seqr::gmean     1.123225                       (Unspecified)
board.cache_hierarchy.ruby_system.RequestType.ST.latency_hist_seqr::stdev    27.800461                       (Unspecified)
board.cache_hierarchy.ruby_system.RequestType.ST.latency_hist_seqr |     2927162     99.89%     99.89% |        2372      0.08%     99.97% |         270      0.01%     99.98% |          20      0.00%     99.98% |         502      0.02%    100.00% |          16      0.00%    100.00% |           7      0.00%    100.00% |           0      0.00%    100.00% |           0      0.00%    100.00% |           0      0.00%    100.00% (Unspecified)
board.cache_hierarchy.ruby_system.RequestType.ST.latency_hist_seqr::total      2930349                       (Unspecified)
board.cache_hierarchy.ruby_system.RequestType.ST.hit_latency_hist_seqr::bucket_size            1                       (Unspecified)
board.cache_hierarchy.ruby_system.RequestType.ST.hit_latency_hist_seqr::max_bucket            9                       (Unspecified)
board.cache_hierarchy.ruby_system.RequestType.ST.hit_latency_hist_seqr::samples      2850897                       (Unspecified)
board.cache_hierarchy.ruby_system.RequestType.ST.hit_latency_hist_seqr::mean            1                       (Unspecified)
board.cache_hierarchy.ruby_system.RequestType.ST.hit_latency_hist_seqr::gmean            1                       (Unspecified)
board.cache_hierarchy.ruby_system.RequestType.ST.hit_latency_hist_seqr |           0      0.00%      0.00% |     2850897    100.00%    100.00% |           0      0.00%    100.00% |           0      0.00%    100.00% |           0      0.00%    100.00% |           0      0.00%    100.00% |           0      0.00%    100.00% |           0      0.00%    100.00% |           0      0.00%    100.00% |           0      0.00%    100.00% (Unspecified)
board.cache_hierarchy.ruby_system.RequestType.ST.hit_latency_hist_seqr::total      2850897                       (Unspecified)
board.cache_hierarchy.ruby_system.RequestType.ST.miss_latency_hist_seqr::bucket_size          256                       (Unspecified)
board.cache_hierarchy.ruby_system.RequestType.ST.miss_latency_hist_seqr::max_bucket         2559                       (Unspecified)
board.cache_hierarchy.ruby_system.RequestType.ST.miss_latency_hist_seqr::samples        79452                       (Unspecified)
board.cache_hierarchy.ruby_system.RequestType.ST.miss_latency_hist_seqr::mean   120.316845                       (Unspecified)
board.cache_hierarchy.ruby_system.RequestType.ST.miss_latency_hist_seqr::gmean    72.663122                       (Unspecified)
board.cache_hierarchy.ruby_system.RequestType.ST.miss_latency_hist_seqr::stdev   121.055776                       (Unspecified)
board.cache_hierarchy.ruby_system.RequestType.ST.miss_latency_hist_seqr |       76265     95.99%     95.99% |        2372      2.99%     98.97% |         270      0.34%     99.31% |          20      0.03%     99.34% |         502      0.63%     99.97% |          16      0.02%     99.99% |           7      0.01%    100.00% |           0      0.00%    100.00% |           0      0.00%    100.00% |           0      0.00%    100.00% (Unspecified)
board.cache_hierarchy.ruby_system.RequestType.ST.miss_latency_hist_seqr::total        79452                       (Unspecified)
board.cache_hierarchy.ruby_system.RequestType.IFETCH.latency_hist_seqr::bucket_size          256                       (Unspecified)
board.cache_hierarchy.ruby_system.RequestType.IFETCH.latency_hist_seqr::max_bucket         2559                       (Unspecified)
board.cache_hierarchy.ruby_system.RequestType.IFETCH.latency_hist_seqr::samples    300651120                       (Unspecified)
board.cache_hierarchy.ruby_system.RequestType.IFETCH.latency_hist_seqr::mean     1.059163                       (Unspecified)
board.cache_hierarchy.ruby_system.RequestType.IFETCH.latency_hist_seqr::gmean     1.002576                       (Unspecified)
board.cache_hierarchy.ruby_system.RequestType.IFETCH.latency_hist_seqr::stdev     3.630677                       (Unspecified)
board.cache_hierarchy.ruby_system.RequestType.IFETCH.latency_hist_seqr |   300649069    100.00%    100.00% |        1070      0.00%    100.00% |          39      0.00%    100.00% |          67      0.00%    100.00% |         849      0.00%    100.00% |          20      0.00%    100.00% |           6      0.00%    100.00% |           0      0.00%    100.00% |           0      0.00%    100.00% |           0      0.00%    100.00% (Unspecified)
board.cache_hierarchy.ruby_system.RequestType.IFETCH.latency_hist_seqr::total    300651120                       (Unspecified)
board.cache_hierarchy.ruby_system.RequestType.IFETCH.hit_latency_hist_seqr::bucket_size            1                       (Unspecified)
board.cache_hierarchy.ruby_system.RequestType.IFETCH.hit_latency_hist_seqr::max_bucket            9                       (Unspecified)
board.cache_hierarchy.ruby_system.RequestType.IFETCH.hit_latency_hist_seqr::samples    300443160                       (Unspecified)
board.cache_hierarchy.ruby_system.RequestType.IFETCH.hit_latency_hist_seqr::mean            1                       (Unspecified)
board.cache_hierarchy.ruby_system.RequestType.IFETCH.hit_latency_hist_seqr::gmean            1                       (Unspecified)
board.cache_hierarchy.ruby_system.RequestType.IFETCH.hit_latency_hist_seqr |           0      0.00%      0.00% |   300443160    100.00%    100.00% |           0      0.00%    100.00% |           0      0.00%    100.00% |           0      0.00%    100.00% |           0      0.00%    100.00% |           0      0.00%    100.00% |           0      0.00%    100.00% |           0      0.00%    100.00% |           0      0.00%    100.00% (Unspecified)
board.cache_hierarchy.ruby_system.RequestType.IFETCH.hit_latency_hist_seqr::total    300443160                       (Unspecified)
board.cache_hierarchy.ruby_system.RequestType.IFETCH.miss_latency_hist_seqr::bucket_size          256                       (Unspecified)
board.cache_hierarchy.ruby_system.RequestType.IFETCH.miss_latency_hist_seqr::max_bucket         2559                       (Unspecified)
board.cache_hierarchy.ruby_system.RequestType.IFETCH.miss_latency_hist_seqr::samples       207960                       (Unspecified)
board.cache_hierarchy.ruby_system.RequestType.IFETCH.miss_latency_hist_seqr::mean    86.532266                       (Unspecified)
board.cache_hierarchy.ruby_system.RequestType.IFETCH.miss_latency_hist_seqr::gmean    41.220755                       (Unspecified)
board.cache_hierarchy.ruby_system.RequestType.IFETCH.miss_latency_hist_seqr::stdev   108.381326                       (Unspecified)
board.cache_hierarchy.ruby_system.RequestType.IFETCH.miss_latency_hist_seqr |      205909     99.01%     99.01% |        1070      0.51%     99.53% |          39      0.02%     99.55% |          67      0.03%     99.58% |         849      0.41%     99.99% |          20      0.01%    100.00% |           6      0.00%    100.00% |           0      0.00%    100.00% |           0      0.00%    100.00% |           0      0.00%    100.00% (Unspecified)
board.cache_hierarchy.ruby_system.RequestType.IFETCH.miss_latency_hist_seqr::total       207960                       (Unspecified)
board.cache_hierarchy.ruby_system.RequestType.RMW_Read.latency_hist_seqr::bucket_size          256                       (Unspecified)
board.cache_hierarchy.ruby_system.RequestType.RMW_Read.latency_hist_seqr::max_bucket         2559                       (Unspecified)
board.cache_hierarchy.ruby_system.RequestType.RMW_Read.latency_hist_seqr::samples        29617                       (Unspecified)
board.cache_hierarchy.ruby_system.RequestType.RMW_Read.latency_hist_seqr::mean    49.357700                       (Unspecified)
board.cache_hierarchy.ruby_system.RequestType.RMW_Read.latency_hist_seqr::gmean     6.445528                       (Unspecified)
board.cache_hierarchy.ruby_system.RequestType.RMW_Read.latency_hist_seqr::stdev    98.113935                       (Unspecified)
board.cache_hierarchy.ruby_system.RequestType.RMW_Read.latency_hist_seqr |       28852     97.42%     97.42% |         701      2.37%     99.78% |           6      0.02%     99.80% |           1      0.00%     99.81% |          47      0.16%     99.97% |          10      0.03%    100.00% |           0      0.00%    100.00% |           0      0.00%    100.00% |           0      0.00%    100.00% |           0      0.00%    100.00% (Unspecified)
board.cache_hierarchy.ruby_system.RequestType.RMW_Read.latency_hist_seqr::total        29617                       (Unspecified)
board.cache_hierarchy.ruby_system.RequestType.RMW_Read.hit_latency_hist_seqr::bucket_size            1                       (Unspecified)
board.cache_hierarchy.ruby_system.RequestType.RMW_Read.hit_latency_hist_seqr::max_bucket            9                       (Unspecified)
board.cache_hierarchy.ruby_system.RequestType.RMW_Read.hit_latency_hist_seqr::samples        15776                       (Unspecified)
board.cache_hierarchy.ruby_system.RequestType.RMW_Read.hit_latency_hist_seqr::mean            1                       (Unspecified)
board.cache_hierarchy.ruby_system.RequestType.RMW_Read.hit_latency_hist_seqr::gmean            1                       (Unspecified)
board.cache_hierarchy.ruby_system.RequestType.RMW_Read.hit_latency_hist_seqr |           0      0.00%      0.00% |       15776    100.00%    100.00% |           0      0.00%    100.00% |           0      0.00%    100.00% |           0      0.00%    100.00% |           0      0.00%    100.00% |           0      0.00%    100.00% |           0      0.00%    100.00% |           0      0.00%    100.00% |           0      0.00%    100.00% (Unspecified)
board.cache_hierarchy.ruby_system.RequestType.RMW_Read.hit_latency_hist_seqr::total        15776                       (Unspecified)
board.cache_hierarchy.ruby_system.RequestType.RMW_Read.miss_latency_hist_seqr::bucket_size          256                       (Unspecified)
board.cache_hierarchy.ruby_system.RequestType.RMW_Read.miss_latency_hist_seqr::max_bucket         2559                       (Unspecified)
board.cache_hierarchy.ruby_system.RequestType.RMW_Read.miss_latency_hist_seqr::samples        13841                       (Unspecified)
board.cache_hierarchy.ruby_system.RequestType.RMW_Read.miss_latency_hist_seqr::mean   104.475905                       (Unspecified)
board.cache_hierarchy.ruby_system.RequestType.RMW_Read.miss_latency_hist_seqr::gmean    53.907975                       (Unspecified)
board.cache_hierarchy.ruby_system.RequestType.RMW_Read.miss_latency_hist_seqr::stdev   122.046900                       (Unspecified)
board.cache_hierarchy.ruby_system.RequestType.RMW_Read.miss_latency_hist_seqr |       13076     94.47%     94.47% |         701      5.06%     99.54% |           6      0.04%     99.58% |           1      0.01%     99.59% |          47      0.34%     99.93% |          10      0.07%    100.00% |           0      0.00%    100.00% |           0      0.00%    100.00% |           0      0.00%    100.00% |           0      0.00%    100.00% (Unspecified)
board.cache_hierarchy.ruby_system.RequestType.RMW_Read.miss_latency_hist_seqr::total        13841                       (Unspecified)
board.cache_hierarchy.ruby_system.RequestType.Locked_RMW_Read.latency_hist_seqr::bucket_size          256                       (Unspecified)
board.cache_hierarchy.ruby_system.RequestType.Locked_RMW_Read.latency_hist_seqr::max_bucket         2559                       (Unspecified)
board.cache_hierarchy.ruby_system.RequestType.Locked_RMW_Read.latency_hist_seqr::samples      1253028                       (Unspecified)
board.cache_hierarchy.ruby_system.RequestType.Locked_RMW_Read.latency_hist_seqr::mean     1.315982                       (Unspecified)
board.cache_hierarchy.ruby_system.RequestType.Locked_RMW_Read.latency_hist_seqr::gmean     1.014607                       (Unspecified)
board.cache_hierarchy.ruby_system.RequestType.Locked_RMW_Read.latency_hist_seqr::stdev     8.422431                       (Unspecified)
board.cache_hierarchy.ruby_system.RequestType.Locked_RMW_Read.latency_hist_seqr |     1252844     99.99%     99.99% |         174      0.01%    100.00% |           2      0.00%    100.00% |           2      0.00%    100.00% |           5      0.00%    100.00% |           1      0.00%    100.00% |           0      0.00%    100.00% |           0      0.00%    100.00% |           0      0.00%    100.00% |           0      0.00%    100.00% (Unspecified)
board.cache_hierarchy.ruby_system.RequestType.Locked_RMW_Read.latency_hist_seqr::total      1253028                       (Unspecified)
board.cache_hierarchy.ruby_system.RequestType.Locked_RMW_Read.hit_latency_hist_seqr::bucket_size            1                       (Unspecified)
board.cache_hierarchy.ruby_system.RequestType.Locked_RMW_Read.hit_latency_hist_seqr::max_bucket            9                       (Unspecified)
board.cache_hierarchy.ruby_system.RequestType.Locked_RMW_Read.hit_latency_hist_seqr::samples      1247928                       (Unspecified)
board.cache_hierarchy.ruby_system.RequestType.Locked_RMW_Read.hit_latency_hist_seqr::mean            1                       (Unspecified)
board.cache_hierarchy.ruby_system.RequestType.Locked_RMW_Read.hit_latency_hist_seqr::gmean            1                       (Unspecified)
board.cache_hierarchy.ruby_system.RequestType.Locked_RMW_Read.hit_latency_hist_seqr |           0      0.00%      0.00% |     1247928    100.00%    100.00% |           0      0.00%    100.00% |           0      0.00%    100.00% |           0      0.00%    100.00% |           0      0.00%    100.00% |           0      0.00%    100.00% |           0      0.00%    100.00% |           0      0.00%    100.00% |           0      0.00%    100.00% (Unspecified)
board.cache_hierarchy.ruby_system.RequestType.Locked_RMW_Read.hit_latency_hist_seqr::total      1247928                       (Unspecified)
board.cache_hierarchy.ruby_system.RequestType.Locked_RMW_Read.miss_latency_hist_seqr::bucket_size          256                       (Unspecified)
board.cache_hierarchy.ruby_system.RequestType.Locked_RMW_Read.miss_latency_hist_seqr::max_bucket         2559                       (Unspecified)
board.cache_hierarchy.ruby_system.RequestType.Locked_RMW_Read.miss_latency_hist_seqr::samples         5100                       (Unspecified)
board.cache_hierarchy.ruby_system.RequestType.Locked_RMW_Read.miss_latency_hist_seqr::mean    78.634118                       (Unspecified)
board.cache_hierarchy.ruby_system.RequestType.Locked_RMW_Read.miss_latency_hist_seqr::gmean    35.265543                       (Unspecified)
board.cache_hierarchy.ruby_system.RequestType.Locked_RMW_Read.miss_latency_hist_seqr::stdev   106.903810                       (Unspecified)
board.cache_hierarchy.ruby_system.RequestType.Locked_RMW_Read.miss_latency_hist_seqr |        4916     96.39%     96.39% |         174      3.41%     99.80% |           2      0.04%     99.84% |           2      0.04%     99.88% |           5      0.10%     99.98% |           1      0.02%    100.00% |           0      0.00%    100.00% |           0      0.00%    100.00% |           0      0.00%    100.00% |           0      0.00%    100.00% (Unspecified)
board.cache_hierarchy.ruby_system.RequestType.Locked_RMW_Read.miss_latency_hist_seqr::total         5100                       (Unspecified)
board.cache_hierarchy.ruby_system.RequestType.Locked_RMW_Write.latency_hist_seqr::bucket_size            1                       (Unspecified)
board.cache_hierarchy.ruby_system.RequestType.Locked_RMW_Write.latency_hist_seqr::max_bucket            9                       (Unspecified)
board.cache_hierarchy.ruby_system.RequestType.Locked_RMW_Write.latency_hist_seqr::samples      1253028                       (Unspecified)
board.cache_hierarchy.ruby_system.RequestType.Locked_RMW_Write.latency_hist_seqr::mean            1                       (Unspecified)
board.cache_hierarchy.ruby_system.RequestType.Locked_RMW_Write.latency_hist_seqr::gmean            1                       (Unspecified)
board.cache_hierarchy.ruby_system.RequestType.Locked_RMW_Write.latency_hist_seqr |           0      0.00%      0.00% |     1253028    100.00%    100.00% |           0      0.00%    100.00% |           0      0.00%    100.00% |           0      0.00%    100.00% |           0      0.00%    100.00% |           0      0.00%    100.00% |           0      0.00%    100.00% |           0      0.00%    100.00% |           0      0.00%    100.00% (Unspecified)
board.cache_hierarchy.ruby_system.RequestType.Locked_RMW_Write.latency_hist_seqr::total      1253028                       (Unspecified)
board.cache_hierarchy.ruby_system.RequestType.Locked_RMW_Write.hit_latency_hist_seqr::bucket_size            1                       (Unspecified)
board.cache_hierarchy.ruby_system.RequestType.Locked_RMW_Write.hit_latency_hist_seqr::max_bucket            9                       (Unspecified)
board.cache_hierarchy.ruby_system.RequestType.Locked_RMW_Write.hit_latency_hist_seqr::samples      1253028                       (Unspecified)
board.cache_hierarchy.ruby_system.RequestType.Locked_RMW_Write.hit_latency_hist_seqr::mean            1                       (Unspecified)
board.cache_hierarchy.ruby_system.RequestType.Locked_RMW_Write.hit_latency_hist_seqr::gmean            1                       (Unspecified)
board.cache_hierarchy.ruby_system.RequestType.Locked_RMW_Write.hit_latency_hist_seqr |           0      0.00%      0.00% |     1253028    100.00%    100.00% |           0      0.00%    100.00% |           0      0.00%    100.00% |           0      0.00%    100.00% |           0      0.00%    100.00% |           0      0.00%    100.00% |           0      0.00%    100.00% |           0      0.00%    100.00% |           0      0.00%    100.00% (Unspecified)
board.cache_hierarchy.ruby_system.RequestType.Locked_RMW_Write.hit_latency_hist_seqr::total      1253028                       (Unspecified)
board.cache_hierarchy.ruby_system.directory_controllers0.power_state.pwrStateResidencyTicks::UNDEFINED 132151022223140                       # Cumulative time (in ticks) in various power states (Tick)
board.cache_hierarchy.ruby_system.directory_controllers0.requestToDir.m_msg_count      2445190                       # Number of messages passed the buffer (Count)
board.cache_hierarchy.ruby_system.directory_controllers0.requestToDir.m_buf_msgs     0.002633                       # Average number of messages in buffer ((Count/Tick))
board.cache_hierarchy.ruby_system.directory_controllers0.requestToMemory.m_msg_count      2772444                       # Number of messages passed the buffer (Count)
board.cache_hierarchy.ruby_system.directory_controllers0.requestToMemory.m_buf_msgs     0.002994                       # Average number of messages in buffer ((Count/Tick))
board.cache_hierarchy.ruby_system.directory_controllers0.requestToMemory.m_stall_time      2471193                       # Total number of ticks messages were stalled in this buffer (Tick)
board.cache_hierarchy.ruby_system.directory_controllers0.requestToMemory.m_avg_stall_time     0.891341                       # Average stall ticks per message ((Tick/Count))
board.cache_hierarchy.ruby_system.directory_controllers0.responseFromDir.m_msg_count      4886284                       # Number of messages passed the buffer (Count)
board.cache_hierarchy.ruby_system.directory_controllers0.responseFromDir.m_buf_msgs     0.005262                       # Average number of messages in buffer ((Count/Tick))
board.cache_hierarchy.ruby_system.directory_controllers0.responseFromMemory.m_msg_count      2772444                       # Number of messages passed the buffer (Count)
board.cache_hierarchy.ruby_system.directory_controllers0.responseFromMemory.m_buf_msgs     0.004738                       # Average number of messages in buffer ((Count/Tick))
board.cache_hierarchy.ruby_system.directory_controllers0.responseToDir.m_msg_count      2441094                       # Number of messages passed the buffer (Count)
board.cache_hierarchy.ruby_system.directory_controllers0.responseToDir.m_buf_msgs     0.002629                       # Average number of messages in buffer ((Count/Tick))
board.cache_hierarchy.ruby_system.directory_controllers1.power_state.pwrStateResidencyTicks::UNDEFINED 132151022223140                       # Cumulative time (in ticks) in various power states (Tick)
board.cache_hierarchy.ruby_system.directory_controllers1.requestToDir.m_msg_count      2448183                       # Number of messages passed the buffer (Count)
board.cache_hierarchy.ruby_system.directory_controllers1.requestToDir.m_buf_msgs     0.002636                       # Average number of messages in buffer ((Count/Tick))
board.cache_hierarchy.ruby_system.directory_controllers1.requestToMemory.m_msg_count      2781372                       # Number of messages passed the buffer (Count)
board.cache_hierarchy.ruby_system.directory_controllers1.requestToMemory.m_buf_msgs     0.003003                       # Average number of messages in buffer ((Count/Tick))
board.cache_hierarchy.ruby_system.directory_controllers1.requestToMemory.m_stall_time      2513151                       # Total number of ticks messages were stalled in this buffer (Tick)
board.cache_hierarchy.ruby_system.directory_controllers1.requestToMemory.m_avg_stall_time     0.903565                       # Average stall ticks per message ((Tick/Count))
board.cache_hierarchy.ruby_system.directory_controllers1.responseFromDir.m_msg_count      4892269                       # Number of messages passed the buffer (Count)
board.cache_hierarchy.ruby_system.directory_controllers1.responseFromDir.m_buf_msgs     0.005268                       # Average number of messages in buffer ((Count/Tick))
board.cache_hierarchy.ruby_system.directory_controllers1.responseFromMemory.m_msg_count      2781371                       # Number of messages passed the buffer (Count)
board.cache_hierarchy.ruby_system.directory_controllers1.responseFromMemory.m_buf_msgs     0.004756                       # Average number of messages in buffer ((Count/Tick))
board.cache_hierarchy.ruby_system.directory_controllers1.responseToDir.m_msg_count      2444087                       # Number of messages passed the buffer (Count)
board.cache_hierarchy.ruby_system.directory_controllers1.responseToDir.m_buf_msgs     0.002632                       # Average number of messages in buffer ((Count/Tick))
board.cache_hierarchy.ruby_system.dma_controllers0.dma_sequencer.power_state.pwrStateResidencyTicks::UNDEFINED 132151022223140                       # Cumulative time (in ticks) in various power states (Tick)
board.cache_hierarchy.ruby_system.dma_controllers0.power_state.pwrStateResidencyTicks::UNDEFINED 132151022223140                       # Cumulative time (in ticks) in various power states (Tick)
board.cache_hierarchy.ruby_system.dma_controllers1.dma_sequencer.power_state.pwrStateResidencyTicks::UNDEFINED 132151022223140                       # Cumulative time (in ticks) in various power states (Tick)
board.cache_hierarchy.ruby_system.dma_controllers1.power_state.pwrStateResidencyTicks::UNDEFINED 132151022223140                       # Cumulative time (in ticks) in various power states (Tick)
board.cache_hierarchy.ruby_system.l1_controllers0.delayHistogram::samples     13659886                       # delay_histogram (Unspecified)
board.cache_hierarchy.ruby_system.l1_controllers0.delayHistogram::mean     0.003197                       # delay_histogram (Unspecified)
board.cache_hierarchy.ruby_system.l1_controllers0.delayHistogram::stdev     0.136239                       # delay_histogram (Unspecified)
board.cache_hierarchy.ruby_system.l1_controllers0.delayHistogram::0-1     13650923     99.93%     99.93% # delay_histogram (Unspecified)
board.cache_hierarchy.ruby_system.l1_controllers0.delayHistogram::2-3         2230      0.02%     99.95% # delay_histogram (Unspecified)
board.cache_hierarchy.ruby_system.l1_controllers0.delayHistogram::4-5         2378      0.02%     99.97% # delay_histogram (Unspecified)
board.cache_hierarchy.ruby_system.l1_controllers0.delayHistogram::6-7         2573      0.02%     99.99% # delay_histogram (Unspecified)
board.cache_hierarchy.ruby_system.l1_controllers0.delayHistogram::8-9         1781      0.01%    100.00% # delay_histogram (Unspecified)
board.cache_hierarchy.ruby_system.l1_controllers0.delayHistogram::10-11            1      0.00%    100.00% # delay_histogram (Unspecified)
board.cache_hierarchy.ruby_system.l1_controllers0.delayHistogram::total     13659886                       # delay_histogram (Unspecified)
board.cache_hierarchy.ruby_system.l1_controllers0.L1Dcache.m_demand_hits     27274393                       # Number of cache demand hits (Unspecified)
board.cache_hierarchy.ruby_system.l1_controllers0.L1Dcache.m_demand_misses      9255775                       # Number of cache demand misses (Unspecified)
board.cache_hierarchy.ruby_system.l1_controllers0.L1Dcache.m_demand_accesses     36530168                       # Number of cache demand accesses (Unspecified)
board.cache_hierarchy.ruby_system.l1_controllers0.L1Icache.m_demand_hits    150925135                       # Number of cache demand hits (Unspecified)
board.cache_hierarchy.ruby_system.l1_controllers0.L1Icache.m_demand_misses        86408                       # Number of cache demand misses (Unspecified)
board.cache_hierarchy.ruby_system.l1_controllers0.L1Icache.m_demand_accesses    151011543                       # Number of cache demand accesses (Unspecified)
board.cache_hierarchy.ruby_system.l1_controllers0.mandatoryQueue.m_msg_count    187541711                       # Number of messages passed the buffer (Count)
board.cache_hierarchy.ruby_system.l1_controllers0.mandatoryQueue.m_buf_msgs     0.205238                       # Average number of messages in buffer ((Count/Tick))
board.cache_hierarchy.ruby_system.l1_controllers0.power_state.pwrStateResidencyTicks::UNDEFINED 132151022223140                       # Cumulative time (in ticks) in various power states (Tick)
board.cache_hierarchy.ruby_system.l1_controllers0.prefetcher.RubyPrefetcher.numMissObserved            0                       # Number of misses observed (Unspecified)
board.cache_hierarchy.ruby_system.l1_controllers0.prefetcher.RubyPrefetcher.numAllocatedStreams            0                       # Number of streams allocated for prefetching (Unspecified)
board.cache_hierarchy.ruby_system.l1_controllers0.prefetcher.RubyPrefetcher.numPrefetchRequested            0                       # Number of prefetch requests made (Unspecified)
board.cache_hierarchy.ruby_system.l1_controllers0.prefetcher.RubyPrefetcher.numHits            0                       # Number of prefetched blocks accessed (for the first time) (Unspecified)
board.cache_hierarchy.ruby_system.l1_controllers0.prefetcher.RubyPrefetcher.numPartialHits            0                       # Number of misses observed for a block being prefetched (Unspecified)
board.cache_hierarchy.ruby_system.l1_controllers0.prefetcher.RubyPrefetcher.numPagesCrossed            0                       # Number of prefetches across pages (Unspecified)
board.cache_hierarchy.ruby_system.l1_controllers0.prefetcher.RubyPrefetcher.numMissedPrefetchedBlocks            0                       # Number of misses for blocks that were prefetched, yet missed (Unspecified)
board.cache_hierarchy.ruby_system.l1_controllers0.requestFromL1Cache.m_msg_count     13573777                       # Number of messages passed the buffer (Count)
board.cache_hierarchy.ruby_system.l1_controllers0.requestFromL1Cache.m_buf_msgs     0.029234                       # Average number of messages in buffer ((Count/Tick))
board.cache_hierarchy.ruby_system.l1_controllers0.requestToL1Cache.m_msg_count        84219                       # Number of messages passed the buffer (Count)
board.cache_hierarchy.ruby_system.l1_controllers0.requestToL1Cache.m_buf_msgs     0.000091                       # Average number of messages in buffer ((Count/Tick))
board.cache_hierarchy.ruby_system.l1_controllers0.responseFromL1Cache.m_msg_count        90814                       # Number of messages passed the buffer (Count)
board.cache_hierarchy.ruby_system.l1_controllers0.responseFromL1Cache.m_buf_msgs     0.000196                       # Average number of messages in buffer ((Count/Tick))
board.cache_hierarchy.ruby_system.l1_controllers0.responseToL1Cache.m_msg_count     13575667                       # Number of messages passed the buffer (Count)
board.cache_hierarchy.ruby_system.l1_controllers0.responseToL1Cache.m_buf_msgs     0.014619                       # Average number of messages in buffer ((Count/Tick))
board.cache_hierarchy.ruby_system.l1_controllers0.sequencer.power_state.pwrStateResidencyTicks::UNDEFINED 132151022223140                       # Cumulative time (in ticks) in various power states (Tick)
board.cache_hierarchy.ruby_system.l1_controllers0.unblockFromL1Cache.m_msg_count      4241504                       # Number of messages passed the buffer (Count)
board.cache_hierarchy.ruby_system.l1_controllers0.unblockFromL1Cache.m_buf_msgs     0.004568                       # Average number of messages in buffer ((Count/Tick))
board.cache_hierarchy.ruby_system.l1_controllers1.fullyBusyCycles            5                       # cycles for which number of transistions == max transitions (Unspecified)
board.cache_hierarchy.ruby_system.l1_controllers1.delayHistogram::samples     13814102                       # delay_histogram (Unspecified)
board.cache_hierarchy.ruby_system.l1_controllers1.delayHistogram::mean     0.004547                       # delay_histogram (Unspecified)
board.cache_hierarchy.ruby_system.l1_controllers1.delayHistogram::stdev     0.161721                       # delay_histogram (Unspecified)
board.cache_hierarchy.ruby_system.l1_controllers1.delayHistogram::0-1     13800448     99.90%     99.90% # delay_histogram (Unspecified)
board.cache_hierarchy.ruby_system.l1_controllers1.delayHistogram::2-3         4613      0.03%     99.93% # delay_histogram (Unspecified)
board.cache_hierarchy.ruby_system.l1_controllers1.delayHistogram::4-5         3360      0.02%     99.96% # delay_histogram (Unspecified)
board.cache_hierarchy.ruby_system.l1_controllers1.delayHistogram::6-7         2652      0.02%     99.98% # delay_histogram (Unspecified)
board.cache_hierarchy.ruby_system.l1_controllers1.delayHistogram::8-9         3028      0.02%    100.00% # delay_histogram (Unspecified)
board.cache_hierarchy.ruby_system.l1_controllers1.delayHistogram::10-11            1      0.00%    100.00% # delay_histogram (Unspecified)
board.cache_hierarchy.ruby_system.l1_controllers1.delayHistogram::total     13814102                       # delay_histogram (Unspecified)
[...]
board.processor.switch1.core.commitStats0.numIntInsts    186019849                       # Number of integer instructions (Count)
board.processor.switch1.core.commitStats0.numLoadInsts     31277593                       # Number of load instructions (Count)
board.processor.switch1.core.commitStats0.numStoreInsts      2210211                       # Number of store instructions (Count)
board.processor.switch1.core.commitStats0.numVecInsts            0                       # Number of vector instructions (Count)
board.processor.switch1.core.commitStats0.committedInstType::No_OpClass         3647      0.00%      0.00% # Class of committed instruction. (Count)
board.processor.switch1.core.commitStats0.committedInstType::IntAlu    154075563     81.95%     81.95% # Class of committed instruction. (Count)
board.processor.switch1.core.commitStats0.committedInstType::IntMult         8795      0.00%     81.96% # Class of committed instruction. (Count)
board.processor.switch1.core.commitStats0.committedInstType::IntDiv       141757      0.08%     82.03% # Class of committed instruction. (Count)
board.processor.switch1.core.commitStats0.committedInstType::FloatAdd          165      0.00%     82.03% # Class of committed instruction. (Count)
board.processor.switch1.core.commitStats0.committedInstType::FloatCmp            1      0.00%     82.03% # Class of committed instruction. (Count)
board.processor.switch1.core.commitStats0.committedInstType::FloatCvt          160      0.00%     82.03% # Class of committed instruction. (Count)
board.processor.switch1.core.commitStats0.committedInstType::FloatMult            2      0.00%     82.03% # Class of committed instruction. (Count)
board.processor.switch1.core.commitStats0.committedInstType::FloatMultAcc            0      0.00%     82.03% # Class of committed instruction. (Count)
board.processor.switch1.core.commitStats0.committedInstType::FloatDiv            1      0.00%     82.03% # Class of committed instruction. (Count)
board.processor.switch1.core.commitStats0.committedInstType::FloatMisc            0      0.00%     82.03% # Class of committed instruction. (Count)
board.processor.switch1.core.commitStats0.committedInstType::FloatSqrt            0      0.00%     82.03% # Class of committed instruction. (Count)
board.processor.switch1.core.commitStats0.committedInstType::SimdAdd       286992      0.15%     82.19% # Class of committed instruction. (Count)
board.processor.switch1.core.commitStats0.committedInstType::SimdAddAcc            0      0.00%     82.19% # Class of committed instruction. (Count)
board.processor.switch1.core.commitStats0.committedInstType::SimdAlu          421      0.00%     82.19% # Class of committed instruction. (Count)
board.processor.switch1.core.commitStats0.committedInstType::SimdCmp            0      0.00%     82.19% # Class of committed instruction. (Count)
board.processor.switch1.core.commitStats0.committedInstType::SimdCvt          388      0.00%     82.19% # Class of committed instruction. (Count)
board.processor.switch1.core.commitStats0.committedInstType::SimdMisc          357      0.00%     82.19% # Class of committed instruction. (Count)
board.processor.switch1.core.commitStats0.committedInstType::SimdMult            0      0.00%     82.19% # Class of committed instruction. (Count)
board.processor.switch1.core.commitStats0.committedInstType::SimdMultAcc            0      0.00%     82.19% # Class of committed instruction. (Count)
board.processor.switch1.core.commitStats0.committedInstType::SimdMatMultAcc            0      0.00%     82.19% # Class of committed instruction. (Count)
board.processor.switch1.core.commitStats0.committedInstType::SimdShift          117      0.00%     82.19% # Class of committed instruction. (Count)
board.processor.switch1.core.commitStats0.committedInstType::SimdShiftAcc            0      0.00%     82.19% # Class of committed instruction. (Count)
board.processor.switch1.core.commitStats0.committedInstType::SimdDiv            0      0.00%     82.19% # Class of committed instruction. (Count)
board.processor.switch1.core.commitStats0.committedInstType::SimdSqrt            0      0.00%     82.19% # Class of committed instruction. (Count)
board.processor.switch1.core.commitStats0.committedInstType::SimdFloatAdd            3      0.00%     82.19% # Class of committed instruction. (Count)
board.processor.switch1.core.commitStats0.committedInstType::SimdFloatAlu            0      0.00%     82.19% # Class of committed instruction. (Count)
board.processor.switch1.core.commitStats0.committedInstType::SimdFloatCmp            0      0.00%     82.19% # Class of committed instruction. (Count)
board.processor.switch1.core.commitStats0.committedInstType::SimdFloatCvt           17      0.00%     82.19% # Class of committed instruction. (Count)
board.processor.switch1.core.commitStats0.committedInstType::SimdFloatDiv            1      0.00%     82.19% # Class of committed instruction. (Count)
board.processor.switch1.core.commitStats0.committedInstType::SimdFloatMisc            0      0.00%     82.19% # Class of committed instruction. (Count)
board.processor.switch1.core.commitStats0.committedInstType::SimdFloatMult            2      0.00%     82.19% # Class of committed instruction. (Count)
board.processor.switch1.core.commitStats0.committedInstType::SimdFloatMultAcc            0      0.00%     82.19% # Class of committed instruction. (Count)
board.processor.switch1.core.commitStats0.committedInstType::SimdFloatMatMultAcc            0      0.00%     82.19% # Class of committed instruction. (Count)
board.processor.switch1.core.commitStats0.committedInstType::SimdFloatSqrt            0      0.00%     82.19% # Class of committed instruction. (Count)
board.processor.switch1.core.commitStats0.committedInstType::SimdReduceAdd            0      0.00%     82.19% # Class of committed instruction. (Count)
board.processor.switch1.core.commitStats0.committedInstType::SimdReduceAlu            0      0.00%     82.19% # Class of committed instruction. (Count)
board.processor.switch1.core.commitStats0.committedInstType::SimdReduceCmp            0      0.00%     82.19% # Class of committed instruction. (Count)
board.processor.switch1.core.commitStats0.committedInstType::SimdFloatReduceAdd            0      0.00%     82.19% # Class of committed instruction. (Count)
board.processor.switch1.core.commitStats0.committedInstType::SimdFloatReduceCmp            0      0.00%     82.19% # Class of committed instruction. (Count)
board.processor.switch1.core.commitStats0.committedInstType::SimdAes            0      0.00%     82.19% # Class of committed instruction. (Count)
board.processor.switch1.core.commitStats0.committedInstType::SimdAesMix            0      0.00%     82.19% # Class of committed instruction. (Count)
board.processor.switch1.core.commitStats0.committedInstType::SimdSha1Hash            0      0.00%     82.19% # Class of committed instruction. (Count)
board.processor.switch1.core.commitStats0.committedInstType::SimdSha1Hash2            0      0.00%     82.19% # Class of committed instruction. (Count)
board.processor.switch1.core.commitStats0.committedInstType::SimdSha256Hash            0      0.00%     82.19% # Class of committed instruction. (Count)
board.processor.switch1.core.commitStats0.committedInstType::SimdSha256Hash2            0      0.00%     82.19% # Class of committed instruction. (Count)
board.processor.switch1.core.commitStats0.committedInstType::SimdShaSigma2            0      0.00%     82.19% # Class of committed instruction. (Count)
board.processor.switch1.core.commitStats0.committedInstType::SimdShaSigma3            0      0.00%     82.19% # Class of committed instruction. (Count)
board.processor.switch1.core.commitStats0.committedInstType::SimdPredAlu            0      0.00%     82.19% # Class of committed instruction. (Count)
board.processor.switch1.core.commitStats0.committedInstType::Matrix            0      0.00%     82.19% # Class of committed instruction. (Count)
board.processor.switch1.core.commitStats0.committedInstType::MatrixMov            0      0.00%     82.19% # Class of committed instruction. (Count)
board.processor.switch1.core.commitStats0.committedInstType::MatrixOP            0      0.00%     82.19% # Class of committed instruction. (Count)
board.processor.switch1.core.commitStats0.committedInstType::MemRead     31276627     16.64%     98.82% # Class of committed instruction. (Count)
board.processor.switch1.core.commitStats0.committedInstType::MemWrite      1922670      1.02%     99.85% # Class of committed instruction. (Count)
board.processor.switch1.core.commitStats0.committedInstType::FloatMemRead          966      0.00%     99.85% # Class of committed instruction. (Count)
board.processor.switch1.core.commitStats0.committedInstType::FloatMemWrite       287541      0.15%    100.00% # Class of committed instruction. (Count)
board.processor.switch1.core.commitStats0.committedInstType::IprAccess            0      0.00%    100.00% # Class of committed instruction. (Count)
board.processor.switch1.core.commitStats0.committedInstType::InstPrefetch            0      0.00%    100.00% # Class of committed instruction. (Count)
board.processor.switch1.core.commitStats0.committedInstType::SimdUnitStrideLoad            0      0.00%    100.00% # Class of committed instruction. (Count)
board.processor.switch1.core.commitStats0.committedInstType::SimdUnitStrideStore            0      0.00%    100.00% # Class of committed instruction. (Count)
board.processor.switch1.core.commitStats0.committedInstType::SimdUnitStrideMaskLoad            0      0.00%    100.00% # Class of committed instruction. (Count)
board.processor.switch1.core.commitStats0.committedInstType::SimdUnitStrideMaskStore            0      0.00%    100.00% # Class of committed instruction. (Count)
board.processor.switch1.core.commitStats0.committedInstType::SimdStridedLoad            0      0.00%    100.00% # Class of committed instruction. (Count)
board.processor.switch1.core.commitStats0.committedInstType::SimdStridedStore            0      0.00%    100.00% # Class of committed instruction. (Count)
board.processor.switch1.core.commitStats0.committedInstType::SimdIndexedLoad            0      0.00%    100.00% # Class of committed instruction. (Count)
board.processor.switch1.core.commitStats0.committedInstType::SimdIndexedStore            0      0.00%    100.00% # Class of committed instruction. (Count)
board.processor.switch1.core.commitStats0.committedInstType::SimdWholeRegisterLoad            0      0.00%    100.00% # Class of committed instruction. (Count)
board.processor.switch1.core.commitStats0.committedInstType::SimdWholeRegisterStore            0      0.00%    100.00% # Class of committed instruction. (Count)
board.processor.switch1.core.commitStats0.committedInstType::SimdUnitStrideFaultOnlyFirstLoad            0      0.00%    100.00% # Class of committed instruction. (Count)
board.processor.switch1.core.commitStats0.committedInstType::SimdUnitStrideSegmentedLoad            0      0.00%    100.00% # Class of committed instruction. (Count)
board.processor.switch1.core.commitStats0.committedInstType::SimdUnitStrideSegmentedStore            0      0.00%    100.00% # Class of committed instruction. (Count)
board.processor.switch1.core.commitStats0.committedInstType::SimdUnitStrideSegmentedFaultOnlyFirstLoad            0      0.00%    100.00% # Class of committed instruction. (Count)
board.processor.switch1.core.commitStats0.committedInstType::SimdStrideSegmentedLoad            0      0.00%    100.00% # Class of committed instruction. (Count)
board.processor.switch1.core.commitStats0.committedInstType::SimdStrideSegmentedStore            0      0.00%    100.00% # Class of committed instruction. (Count)
board.processor.switch1.core.commitStats0.committedInstType::SimdExt            0      0.00%    100.00% # Class of committed instruction. (Count)
board.processor.switch1.core.commitStats0.committedInstType::SimdFloatExt            0      0.00%    100.00% # Class of committed instruction. (Count)
board.processor.switch1.core.commitStats0.committedInstType::SimdConfig            0      0.00%    100.00% # Class of committed instruction. (Count)
board.processor.switch1.core.commitStats0.committedInstType::total    188006193                       # Class of committed instruction. (Count)
board.processor.switch1.core.commitStats0.committedControl::IsControl     22280036                       # Class of control type instructions committed (Count)
board.processor.switch1.core.commitStats0.committedControl::IsDirectControl     22237270                       # Class of control type instructions committed (Count)
board.processor.switch1.core.commitStats0.committedControl::IsIndirectControl        41996                       # Class of control type instructions committed (Count)
board.processor.switch1.core.commitStats0.committedControl::IsCondControl     18953711                       # Class of control type instructions committed (Count)
board.processor.switch1.core.commitStats0.committedControl::IsUncondControl      3326263                       # Class of control type instructions committed (Count)
board.processor.switch1.core.commitStats0.committedControl::IsCall        39239                       # Class of control type instructions committed (Count)
board.processor.switch1.core.commitStats0.committedControl::IsReturn        39175                       # Class of control type instructions committed (Count)
board.processor.switch1.core.exec_context.thread_0.numMatAluAccesses            0                       # Number of matrix alu accesses (Count)
board.processor.switch1.core.exec_context.thread_0.numCallsReturns        78414                       # Number of times a function call or return occured (Count)
board.processor.switch1.core.exec_context.thread_0.numMatInsts            0                       # Number of matrix instructions (Count)
board.processor.switch1.core.exec_context.thread_0.numIdleCycles            0                       # Number of idle cycles (Cycle)
board.processor.switch1.core.exec_context.thread_0.numBusyCycles    928615766                       # Number of busy cycles (Cycle)
board.processor.switch1.core.exec_context.thread_0.notIdleFraction            1                       # Percentage of non-idle cycles (Ratio)
board.processor.switch1.core.exec_context.thread_0.idleFraction            0                       # Percentage of idle cycles (Ratio)
board.processor.switch1.core.executeStats0.numInsts            0                       # Number of executed instructions (Count)
board.processor.switch1.core.executeStats0.numNop            0                       # Number of nop insts executed (Count)
board.processor.switch1.core.executeStats0.numBranches            0                       # Number of branches executed (Count)
board.processor.switch1.core.executeStats0.numLoadInsts            0                       # Number of load instructions executed (Count)
board.processor.switch1.core.executeStats0.numStoreInsts     33487804                       # Number of stores executed (Count)
board.processor.switch1.core.executeStats0.instRate            0                       # Inst execution rate ((Count/Cycle))
board.processor.switch1.core.executeStats0.numFpAluAccesses       577251                       # Number of float alu accesses (Count)
board.processor.switch1.core.executeStats0.numFpRegReads      1151719                       # Number of times the floating registers were read (Count)
board.processor.switch1.core.executeStats0.numFpRegWrites       289318                       # Number of times the floating registers were written (Count)
board.processor.switch1.core.executeStats0.numIntAluAccesses    186019849                       # Number of integer alu accesses (Count)
board.processor.switch1.core.executeStats0.numIntRegReads    240985953                       # Number of times the integer registers were read (Count)
board.processor.switch1.core.executeStats0.numIntRegWrites    140389670                       # Number of times the integer registers were written (Count)
board.processor.switch1.core.executeStats0.numMemRefs     33487804                       # Number of memory refs (Count)
board.processor.switch1.core.executeStats0.numMiscRegReads     78005770                       # Number of times the Misc registers were read (Count)
board.processor.switch1.core.executeStats0.numMiscRegWrites        14123                       # Number of times the Misc registers were written (Count)
board.processor.switch1.core.executeStats0.numVecAluAccesses            0                       # Number of vector alu accesses (Count)
board.processor.switch1.core.executeStats0.numDiscardedOps            0                       # Number of ops (including micro ops) which were discarded before commit (Count)
board.processor.switch1.core.fetchStats0.numInsts    119493233                       # Number of instructions fetched (thread level) (Count)
board.processor.switch1.core.fetchStats0.numOps    188006194                       # Number of ops (including micro ops) fetched (thread level) (Count)
board.processor.switch1.core.fetchStats0.fetchRate     0.128679                       # Number of inst fetches per cycle ((Count/Cycle))
board.processor.switch1.core.fetchStats0.numBranches     22280036                       # Number of branches fetched (Count)
board.processor.switch1.core.fetchStats0.branchRate     0.023993                       # Number of branch fetches per cycle (Ratio)
board.processor.switch1.core.fetchStats0.numFetchSuspends            0                       # Number of times Execute suspended instruction fetching (Count)
board.processor.switch1.core.mmu.dtb.rdAccesses     32036950                       # TLB accesses on read requests (Count)
board.processor.switch1.core.mmu.dtb.wrAccesses      2210868                       # TLB accesses on write requests (Count)
board.processor.switch1.core.mmu.dtb.rdMisses       760343                       # TLB misses on read requests (Count)
board.processor.switch1.core.mmu.dtb.wrMisses         1008                       # TLB misses on write requests (Count)
board.processor.switch1.core.mmu.dtb.walker.power_state.pwrStateResidencyTicks::UNDEFINED 132151022223140                       # Cumulative time (in ticks) in various power states (Tick)
board.processor.switch1.core.mmu.itb.rdAccesses            0                       # TLB accesses on read requests (Count)
board.processor.switch1.core.mmu.itb.wrAccesses    149641033                       # TLB accesses on write requests (Count)
board.processor.switch1.core.mmu.itb.rdMisses            0                       # TLB misses on read requests (Count)
board.processor.switch1.core.mmu.itb.wrMisses         1456                       # TLB misses on write requests (Count)
board.processor.switch1.core.mmu.itb.walker.power_state.pwrStateResidencyTicks::UNDEFINED 132151022223140                       # Cumulative time (in ticks) in various power states (Tick)
board.processor.switch1.core.power_state.pwrStateResidencyTicks::OFF 132151022223140                       # Cumulative time (in ticks) in various power states (Tick)
board.processor.switch1.core.thread_0.numInsts            0                       # Number of Instructions committed (Count)
board.processor.switch1.core.thread_0.numOps            0                       # Number of Ops committed (Count)
board.processor.switch1.core.thread_0.numMemRefs            0                       # Number of Memory References (Count)
board.workload.inst.arm                             0                       # number of arm instructions executed (Count)
board.workload.inst.quiesce                         0                       # number of quiesce instructions executed (Count)

---------- End Simulation Statistics   ----------
